a15_a89a in P-1                  New: I2/c
 OpenBabel02242214443D
Generated from the CSD
  0  0  0     0  0            999 V3000
M  V30 BEGIN CTAB
M  V30 COUNTS 40 41 0 0 1
M  V30 BEGIN ATOM
M  V30 1 Zn 4.1086 5.1517 3.1761 0 CHG=-1
M  V30 2 C 5.4001 2.9568 1.803 0
M  V30 3 N 4.7424 3.2716 2.9366 0 CHG=1
M  V30 4 Cl 5.5466 6.4951 2.1412 0
M  V30 5 O 4.6663 5.0982 5.1356 0
M  V30 6 O 5.1289 4.1889 7.0945 0
M  V30 7 Cl 1.9336 5.5516 3.1626 0
M  V30 8 C 3.4789 3.7251 0.4868 0
M  V30 9 H 3.1309 3.3996 -0.3695 0
M  V30 10 H 3.399 4.7012 0.5221 0
M  V30 11 H 2.9644 3.3286 1.2206 0
M  V30 12 N 4.8684 3.3507 0.6156 0
M  V30 13 N 6.5743 2.2995 1.7916 0
M  V30 14 C 5.6987 3.7168 -0.5345 0
M  V30 15 H 5.4532 4.6143 -0.8421 0
M  V30 16 H 5.5556 3.0726 -1.259 0
M  V30 17 H 6.6427 3.7085 -0.2716 0
M  V30 18 C 6.9162 1.2969 0.7913 0
M  V30 19 H 7.1454 0.4551 1.2376 0
M  V30 20 H 7.6832 1.6076 0.2663 0
M  V30 21 H 6.1502 1.1537 0.1971 0
M  V30 22 C 7.4715 2.3235 2.9522 0
M  V30 23 H 8.3955 2.4436 2.6485 0
M  V30 24 H 7.3958 1.4776 3.4412 0
M  V30 25 H 7.2226 3.0653 3.5423 0
M  V30 26 C 4.7182 2.3135 3.9714 0
M  V30 27 C 4.6226 0.9511 3.6573 0
M  V30 28 H 4.5911 0.6908 2.7443 0
M  V30 29 C 4.5728 -0.0266 4.6339 0
M  V30 30 H 4.5224 -0.9443 4.3935 0
M  V30 31 C 4.5978 0.3537 5.9852 0
M  V30 32 H 4.5741 -0.3079 6.6666 0
M  V30 33 C 4.6558 1.6713 6.3165 0
M  V30 34 H 4.6409 1.9142 7.2348 0
M  V30 35 C 4.7372 2.6894 5.3446 0
M  V30 36 C 4.8217 4.0742 5.8003 0
M  V30 37 C 5.1045 5.5396 7.6582 0
M  V30 38 H 5.4001 5.5092 8.5921 0
M  V30 39 H 4.1922 5.8949 7.6158 0
M  V30 40 H 5.705 6.1189 7.1442 0
M  V30 END ATOM
M  V30 BEGIN BOND
M  V30 1 1 1 3
M  V30 2 1 1 4
M  V30 3 1 1 5
M  V30 4 1 1 7
M  V30 5 2 2 3
M  V30 6 1 2 12
M  V30 7 1 2 13
M  V30 8 1 3 26
M  V30 9 1 5 36
M  V30 10 1 6 36
M  V30 11 1 6 37
M  V30 12 1 8 9
M  V30 13 1 8 10
M  V30 14 1 8 11
M  V30 15 1 8 12
M  V30 16 1 12 14
M  V30 17 1 13 18
M  V30 18 1 13 22
M  V30 19 1 14 15
M  V30 20 1 14 16
M  V30 21 1 14 17
M  V30 22 1 18 19
M  V30 23 1 18 20
M  V30 24 1 18 21
M  V30 25 1 22 23
M  V30 26 1 22 24
M  V30 27 1 22 25
M  V30 28 2 26 27
M  V30 29 2 26 35
M  V30 30 1 27 28
M  V30 31 1 27 29
M  V30 32 1 29 30
M  V30 33 2 29 31
M  V30 34 1 31 32
M  V30 35 1 31 33
M  V30 36 1 33 34
M  V30 37 2 33 35
M  V30 38 1 35 36
M  V30 39 1 37 38
M  V30 40 1 37 39
M  V30 41 1 37 40
M  V30 END BOND
M  V30 END CTAB
M  END
