C22 H28 N4 O6 Zn in P2(1)/n
 OpenBabel02242214443D
Generated from the CSD
  0  0  0     0  0            999 V3000
M  V30 BEGIN CTAB
M  V30 COUNTS 61 66 0 0 1
M  V30 BEGIN ATOM
M  V30 1 Zn 13.758 3.8695 0.3398 0 CHG=-3
M  V30 2 O 18.5338 3.3744 1.3045 0
M  V30 3 O 15.4275 9.8085 1.5984 0
M  V30 4 O 14.9883 4.7779 -0.9543 0 CHG=1
M  V30 5 O 13.1482 5.8744 -1.1154 0 CHG=-1
M  V30 6 O 14.418 1.9837 0.3698 0 CHG=1
M  V30 7 O 12.9025 1.94 -1.2351 0
M  V30 8 N 14.1423 4.9041 2.0774 0 CHG=1
M  V30 9 N 16.4461 5.0758 2.1923 0
M  V30 10 N 15.1845 7.0376 2.1719 0
M  V30 11 N 11.8222 3.9703 1.0749 0 CHG=1
M  V30 12 C 15.2428 5.6734 2.1788 0
M  V30 13 C 16.642 3.7307 2.7665 0
M  V30 14 H 15.7827 3.3627 3.0256 0
M  V30 15 H 17.1923 3.7972 3.5625 0
M  V30 16 C 17.3053 2.8057 1.7736 0
M  V30 17 H 17.4832 1.9503 2.1951 0
M  V30 18 H 16.71 2.6539 1.023 0
M  V30 19 C 18.2806 4.6103 0.6476 0
M  V30 20 H 17.6779 4.4597 -0.0974 0
M  V30 21 H 19.1125 4.961 0.2929 0
M  V30 22 C 17.6592 5.6448 1.6034 0
M  V30 23 H 18.292 5.87 2.3032 0
M  V30 24 H 17.4415 6.4552 1.1168 0
M  V30 25 C 16.0837 7.8941 2.9688 0
M  V30 26 H 16.8585 7.3823 3.2492 0
M  V30 27 H 15.6211 8.2026 3.7637 0
M  V30 28 C 16.5336 9.0943 2.1374 0
M  V30 29 H 17.0585 9.6905 2.6942 0
M  V30 30 H 17.0999 8.787 1.4124 0
M  V30 31 C 14.5878 8.9575 0.8155 0
M  V30 32 H 15.0922 8.6271 0.0557 0
M  V30 33 H 13.8421 9.4754 0.4742 0
M  V30 34 C 14.0514 7.7774 1.6051 0
M  V30 35 H 13.4717 8.0912 2.3167 0
M  V30 36 H 13.5348 7.1975 1.0239 0
M  V30 37 C 12.9747 5.2143 2.7855 0
M  V30 38 C 12.9101 5.9205 3.9775 0
M  V30 39 H 13.686 6.2751 4.3478 0
M  V30 40 C 11.6639 6.105 4.6361 0
M  V30 41 H 11.639 6.587 5.4311 0
M  V30 42 C 10.5061 5.5949 4.1339 0
M  V30 43 H 9.7065 5.7312 4.5888 0
M  V30 44 C 10.5094 4.8572 2.9226 0
M  V30 45 C 11.7562 4.6854 2.2473 0
M  V30 46 C 9.3643 4.284 2.3244 0
M  V30 47 H 8.5366 4.3695 2.7396 0
M  V30 48 C 9.4599 3.6118 1.153 0
M  V30 49 H 8.7014 3.2465 0.7578 0
M  V30 50 C 10.7178 3.4713 0.54 0
M  V30 51 H 10.7761 3.0132 -0.2673 0
M  V30 52 C 14.332 5.723 -1.4229 0
M  V30 53 C 14.9384 6.6468 -2.436 0
M  V30 54 H 15.8716 6.7644 -2.2437 0
M  V30 55 H 14.4946 7.4973 -2.3997 0
M  V30 56 H 14.8375 6.2703 -3.3133 0
M  V30 57 C 13.7709 1.401 -0.5615 0
M  V30 58 C 14.0963 -0.0734 -0.7923 0
M  V30 59 H 13.6092 -0.6108 -0.1634 0
M  V30 60 H 15.0382 -0.2157 -0.6728 0
M  V30 61 H 13.8462 -0.3203 -1.6856 0
M  V30 END ATOM
M  V30 BEGIN BOND
M  V30 1 2 1 4
M  V30 2 1 1 5
M  V30 3 1 1 6
M  V30 4 1 1 8
M  V30 5 1 1 11
M  V30 6 1 2 16
M  V30 7 1 2 19
M  V30 8 1 3 28
M  V30 9 1 3 31
M  V30 10 1 4 52
M  V30 11 1 5 52
M  V30 12 1 6 57
M  V30 13 2 7 57
M  V30 14 2 8 12
M  V30 15 1 8 37
M  V30 16 1 9 12
M  V30 17 1 9 13
M  V30 18 1 9 22
M  V30 19 1 10 12
M  V30 20 1 10 25
M  V30 21 1 10 34
M  V30 22 1 11 45
M  V30 23 2 11 50
M  V30 24 1 13 14
M  V30 25 1 13 15
M  V30 26 1 13 16
M  V30 27 1 16 17
M  V30 28 1 16 18
M  V30 29 1 19 20
M  V30 30 1 19 21
M  V30 31 1 19 22
M  V30 32 1 22 23
M  V30 33 1 22 24
M  V30 34 1 25 26
M  V30 35 1 25 27
M  V30 36 1 25 28
M  V30 37 1 28 29
M  V30 38 1 28 30
M  V30 39 1 31 32
M  V30 40 1 31 33
M  V30 41 1 31 34
M  V30 42 1 34 35
M  V30 43 1 34 36
M  V30 44 2 37 38
M  V30 45 2 37 45
M  V30 46 1 38 39
M  V30 47 1 38 40
M  V30 48 1 40 41
M  V30 49 2 40 42
M  V30 50 1 42 43
M  V30 51 1 42 44
M  V30 52 2 44 45
M  V30 53 1 44 46
M  V30 54 1 46 47
M  V30 55 2 46 48
M  V30 56 1 48 49
M  V30 57 1 48 50
M  V30 58 1 50 51
M  V30 59 1 52 53
M  V30 60 1 53 54
M  V30 61 1 53 55
M  V30 62 1 53 56
M  V30 63 1 57 58
M  V30 64 1 58 59
M  V30 65 1 58 60
M  V30 66 1 58 61
M  V30 END BOND
M  V30 END CTAB
M  END
