rv202 in P2(1)/c
 OpenBabel02242214443D
Generated from the CSD
  0  0  0     0  0            999 V3000
M  V30 BEGIN CTAB
M  V30 COUNTS 42 43 0 0 0
M  V30 BEGIN ATOM
M  V30 1 Zn 5.348 1.3154 7.3871 0 CHG=-1
M  V30 2 Cl 4.7526 2.0294 5.3843 0
M  V30 3 Cl 7.3393 2.0035 8.1252 0
M  V30 4 N 3.9087 1.2386 8.7923 0 CHG=1
M  V30 5 N 2.8703 3.2895 8.5689 0
M  V30 6 N 1.6574 1.5503 9.4772 0
M  V30 7 C 0.9095 2.3457 10.4413 0
M  V30 8 H 1.4031 3.169 10.6386 0
M  V30 9 H 0.7897 1.8309 11.2666 0
M  V30 10 H 0.0324 2.5723 10.0675 0
M  V30 11 C 4.9036 -0.9406 9.0227 0
M  V30 12 N 5.3002 -0.787 7.6235 0
M  V30 13 C 4.1601 0.103 9.6001 0
M  V30 14 C 3.8121 0.01 10.9505 0
M  V30 15 H 3.3352 0.7195 11.3649 0
M  V30 16 C 4.2643 -1.3469 6.7269 0
M  V30 17 H 4.206 -2.316 6.8602 0
M  V30 18 H 4.5025 -1.1591 5.7951 0
M  V30 19 H 3.3983 -0.9363 6.9318 0
M  V30 20 C 2.8383 1.9986 8.9584 0
M  V30 21 C 4.8559 -2.1507 11.1018 0
M  V30 22 H 5.0728 -2.925 11.6078 0
M  V30 23 C 1.1829 0.1921 9.2843 0
M  V30 24 H 1.6869 -0.2298 8.5574 0
M  V30 25 H 0.2303 0.2084 9.0547 0
M  V30 26 H 1.3111 -0.3191 10.1104 0
M  V30 27 C 5.2384 -2.061 9.773 0
M  V30 28 H 5.7314 -2.7681 9.3735 0
M  V30 29 C 6.6099 -1.4014 7.3064 0
M  V30 30 H 6.5439 -2.3752 7.395 0
M  V30 31 H 7.2886 -1.0622 7.9266 0
M  V30 32 H 6.8638 -1.1735 6.3877 0
M  V30 33 C 4.121 4.0198 8.4306 0
M  V30 34 H 4.8112 3.5926 8.9797 0
M  V30 35 H 3.9936 4.945 8.7276 0
M  V30 36 H 4.4007 4.0138 7.4913 0
M  V30 37 C 1.6842 3.9809 8.0738 0
M  V30 38 H 0.9444 3.3433 7.9926 0
M  V30 39 H 1.8765 4.3716 7.1959 0
M  V30 40 H 1.4353 4.6921 8.7004 0
M  V30 41 C 4.1586 -1.1126 11.6903 0
M  V30 42 H 3.9149 -1.1676 12.6069 0
M  V30 END ATOM
M  V30 BEGIN BOND
M  V30 1 1 1 2
M  V30 2 1 1 3
M  V30 3 1 1 4
M  V30 4 1 1 12
M  V30 5 1 4 13
M  V30 6 2 4 20
M  V30 7 1 5 20
M  V30 8 1 5 33
M  V30 9 1 5 37
M  V30 10 1 6 7
M  V30 11 1 6 20
M  V30 12 1 6 23
M  V30 13 1 7 8
M  V30 14 1 7 9
M  V30 15 1 7 10
M  V30 16 1 11 12
M  V30 17 2 11 13
M  V30 18 1 11 27
M  V30 19 1 12 16
M  V30 20 1 12 29
M  V30 21 2 13 14
M  V30 22 1 14 15
M  V30 23 1 14 41
M  V30 24 1 16 17
M  V30 25 1 16 18
M  V30 26 1 16 19
M  V30 27 1 21 22
M  V30 28 2 21 27
M  V30 29 1 21 41
M  V30 30 1 23 24
M  V30 31 1 23 25
M  V30 32 1 23 26
M  V30 33 1 27 28
M  V30 34 1 29 30
M  V30 35 1 29 31
M  V30 36 1 29 32
M  V30 37 1 33 34
M  V30 38 1 33 35
M  V30 39 1 33 36
M  V30 40 1 37 38
M  V30 41 1 37 39
M  V30 42 1 37 40
M  V30 43 1 41 42
M  V30 END BOND
M  V30 END CTAB
M  END
