(C21 H42 Cl N10 Zn)(Cl) in P21/c
 OpenBabel02242214443D
Generated from the CSD
  0  0  0     0  0            999 V3000
M  V30 BEGIN CTAB
M  V30 COUNTS 76 80 0 0 0
M  V30 BEGIN ATOM
M  V30 1 Zn 3.2487 5.3369 6.2748 0 CHG=-2
M  V30 2 Cl 3.0454 3.3307 5.1031 0
M  V30 3 N 1.2943 6.0584 6.3129 0 CHG=1
M  V30 4 N -0.8003 6.0152 5.1247 0
M  V30 5 N -0.1239 4.2005 6.1922 0
M  V30 6 N 4.584 6.3986 5.0956 0 CHG=1
M  V30 7 N 4.1652 5.6988 2.8843 0
M  V30 8 N 6.2466 6.367 3.3444 0
M  V30 9 N 4.019 4.661 8.08 0 CHG=1
M  V30 10 N 5.5172 2.9123 7.646 0
M  V30 11 N 4.4337 2.8379 9.5845 0
M  V30 12 N 3.4732 7.3207 7.4929 0
M  V30 13 C 0.2056 5.4738 5.8858 0
M  V30 14 C -0.6131 7.0816 4.1603 0
M  V30 15 H -0.7963 7.9443 4.5876 0
M  V30 16 H -1.2274 6.9529 3.4076 0
M  V30 17 H 0.3108 7.0684 3.8339 0
M  V30 18 C -1.8569 5.0262 4.9094 0
M  V30 19 H -2.108 4.9775 3.953 0
M  V30 20 H -2.6615 5.2442 5.4434 0
M  V30 21 C -1.2307 3.7243 5.3749 0
M  V30 22 H -1.8686 3.187 5.9083 0
M  V30 23 H -0.9088 3.1844 4.61 0
M  V30 24 C 0.5014 3.3962 7.2132 0
M  V30 25 H 1.1771 2.8162 6.804 0
M  V30 26 H -0.1772 2.8452 7.6562 0
M  V30 27 H 0.9292 3.9808 7.8732 0
M  V30 28 C 1.2879 7.5272 6.4398 0
M  V30 29 H 0.3618 7.8581 6.5538 0
M  V30 30 H 1.6734 7.9437 5.6286 0
M  V30 31 C 2.1232 7.8734 7.656 0
M  V30 32 H 2.1737 8.8567 7.7594 0
M  V30 33 H 1.7029 7.4973 8.4696 0
M  V30 34 C 4.9872 6.1635 3.8698 0
M  V30 35 C 2.7255 5.9127 2.9124 0
M  V30 36 H 2.368 5.6162 3.7753 0
M  V30 37 H 2.3049 5.3999 2.1909 0
M  V30 38 H 2.5345 6.8661 2.7898 0
M  V30 39 C 4.8134 5.8467 1.5867 0
M  V30 40 H 4.5674 6.7024 1.1538 0
M  V30 41 H 4.5881 5.0967 0.9811 0
M  V30 42 C 6.2714 5.8235 1.977 0
M  V30 43 H 6.6316 4.9015 1.9639 0
M  V30 44 H 6.8131 6.3925 1.3746 0
M  V30 45 C 7.4638 6.0717 4.0988 0
M  V30 46 H 7.4364 6.5399 4.9593 0
M  V30 47 H 8.245 6.3713 3.5886 0
M  V30 48 H 7.5257 5.1061 4.2541 0
M  V30 49 C 5.3406 7.3588 5.9064 0
M  V30 50 H 5.8864 7.9431 5.3226 0
M  V30 51 H 5.9467 6.8799 6.5256 0
M  V30 52 C 4.3373 8.1925 6.6934 0
M  V30 53 H 4.82 8.8189 7.289 0
M  V30 54 H 3.7848 8.7254 6.0682 0
M  V30 55 C 4.6034 3.5317 8.4079 0 CHG=-1
M  V30 56 C 6.1585 3.4789 6.4801 0
M  V30 57 H 5.6832 3.1901 5.6731 0
M  V30 58 H 7.0887 3.1736 6.4381 0
M  V30 59 H 6.138 4.4569 6.5389 0
M  V30 60 C 5.9007 1.6111 8.1918 0
M  V30 61 H 6.8842 1.4979 8.1949 0
M  V30 62 H 5.4893 0.8706 7.6795 0
M  V30 63 C 5.3442 1.6785 9.6157 0
M  V30 64 H 4.8545 0.8492 9.8446 0
M  V30 65 H 6.0707 1.8158 10.2741 0
M  V30 66 C 3.1178 2.7015 10.1898 0
M  V30 67 H 2.4725 3.2487 9.6953 0
M  V30 68 H 3.1543 3.0019 11.1219 0
M  V30 69 H 2.8403 1.7621 10.1599 0
M  V30 70 C 3.6096 5.5528 9.1682 0
M  V30 71 H 4.028 5.2708 10.0199 0
M  V30 72 H 2.6259 5.5323 9.278 0
M  V30 73 C 4.0703 6.9524 8.7909 0
M  V30 74 H 3.789 7.5984 9.4864 0
M  V30 75 H 5.0579 6.9759 8.7261 0
M  V30 76 Cl -3.3115 1.3593 7.131 0 CHG=-1
M  V30 END ATOM
M  V30 BEGIN BOND
M  V30 1 1 1 2
M  V30 2 1 1 3
M  V30 3 1 1 6
M  V30 4 2 1 9
M  V30 5 1 1 12
M  V30 6 2 3 13
M  V30 7 1 3 28
M  V30 8 1 4 13
M  V30 9 1 4 14
M  V30 10 1 4 18
M  V30 11 1 5 13
M  V30 12 1 5 21
M  V30 13 1 5 24
M  V30 14 2 6 34
M  V30 15 1 6 49
M  V30 16 1 7 34
M  V30 17 1 7 35
M  V30 18 1 7 39
M  V30 19 1 8 34
M  V30 20 1 8 42
M  V30 21 1 8 45
M  V30 22 1 9 55
M  V30 23 1 9 70
M  V30 24 1 10 55
M  V30 25 1 10 56
M  V30 26 1 10 60
M  V30 27 1 11 55
M  V30 28 1 11 63
M  V30 29 1 11 66
M  V30 30 1 12 31
M  V30 31 1 12 52
M  V30 32 1 12 73
M  V30 33 1 14 15
M  V30 34 1 14 16
M  V30 35 1 14 17
M  V30 36 1 18 19
M  V30 37 1 18 20
M  V30 38 1 18 21
M  V30 39 1 21 22
M  V30 40 1 21 23
M  V30 41 1 24 25
M  V30 42 1 24 26
M  V30 43 1 24 27
M  V30 44 1 28 29
M  V30 45 1 28 30
M  V30 46 1 28 31
M  V30 47 1 31 32
M  V30 48 1 31 33
M  V30 49 1 35 36
M  V30 50 1 35 37
M  V30 51 1 35 38
M  V30 52 1 39 40
M  V30 53 1 39 41
M  V30 54 1 39 42
M  V30 55 1 42 43
M  V30 56 1 42 44
M  V30 57 1 45 46
M  V30 58 1 45 47
M  V30 59 1 45 48
M  V30 60 1 49 50
M  V30 61 1 49 51
M  V30 62 1 49 52
M  V30 63 1 52 53
M  V30 64 1 52 54
M  V30 65 1 56 57
M  V30 66 1 56 58
M  V30 67 1 56 59
M  V30 68 1 60 61
M  V30 69 1 60 62
M  V30 70 1 60 63
M  V30 71 1 63 64
M  V30 72 1 63 65
M  V30 73 1 66 67
M  V30 74 1 66 68
M  V30 75 1 66 69
M  V30 76 1 70 71
M  V30 77 1 70 72
M  V30 78 1 70 73
M  V30 79 1 73 74
M  V30 80 1 73 75
M  V30 END BOND
M  V30 END CTAB
M  END
