Zn C30 H42 N8 S2 O6 in P2(1)/c
 OpenBabel02242214443D
Generated from the CSD
  0  0  0     0  0            999 V3000
M  V30 BEGIN CTAB
M  V30 COUNTS 89 93 0 0 0
M  V30 BEGIN ATOM
M  V30 1 Zn 1.7976 3.4528 6.8201 0 CHG=-2
M  V30 2 N -0.1242 2.8345 7.3148 0 CHG=1
M  V30 3 N -1.6646 3.3139 9.0485 0
M  V30 4 N 0.0549 1.8005 9.3821 0
M  V30 5 N 0.8089 3.7257 4.9837 0 CHG=1
M  V30 6 N 3.294 2.0966 6.5085 0 CHG=1
M  V30 7 N 2.7798 1.1409 4.4724 0
M  V30 8 N 4.938 1.8961 4.806 0
M  V30 9 N 2.6873 3.4995 8.7079 0 CHG=1
M  V30 10 C -0.5953 2.6552 8.5711 0
M  V30 11 C -2.0791 4.5948 8.5009 0
M  V30 12 H -1.3882 4.9283 7.891 0
M  V30 13 H -2.2076 5.236 9.2308 0
M  V30 14 H -2.9209 4.4838 8.0115 0
M  V30 15 C -2.5614 2.7689 10.0702 0
M  V30 16 H -2.3657 1.8178 10.2028 0
M  V30 17 H -3.491 2.8735 9.7783 0
M  V30 18 H -2.4274 3.2506 10.913 0
M  V30 19 C 0.1551 1.9885 10.8264 0
M  V30 20 H -0.1461 2.8913 11.06 0
M  V30 21 H 1.0868 1.8721 11.1071 0
M  V30 22 H -0.4082 1.3282 11.2816 0
M  V30 23 C 0.8371 0.6952 8.8462 0
M  V30 24 H 0.5662 0.5219 7.9205 0
M  V30 25 H 0.6826 -0.107 9.3874 0
M  V30 26 H 1.789 0.9269 8.87 0
M  V30 27 C -1.0111 2.8333 6.2396 0
M  V30 28 C -2.3084 2.3381 6.2364 0
M  V30 29 H -2.6845 2.0149 7.0467 0
M  V30 30 C -3.0774 2.3046 5.06 0
M  V30 31 H -3.96 1.955 5.0958 0
M  V30 32 C -2.5918 2.7606 3.8653 0
M  V30 33 H -3.1328 2.7362 3.0848 0
M  V30 34 C -1.2697 3.2704 3.8077 0
M  V30 35 C -0.4868 3.2905 4.9858 0
M  V30 36 C -0.6792 3.7611 2.6161 0
M  V30 37 H -1.1689 3.7555 1.8021 0
M  V30 38 C 0.6056 4.2445 2.6467 0
M  V30 39 H 1.0069 4.6003 1.8626 0
M  V30 40 C 1.3174 4.2038 3.8602 0
M  V30 41 H 2.2073 4.5361 3.8729 0
M  V30 42 C 3.6914 1.7073 5.2875 0 CHG=-1
M  V30 43 C 2.7936 1.308 3.0281 0
M  V30 44 H 3.4258 2.017 2.7873 0
M  V30 45 H 1.8962 1.5517 2.7188 0
M  V30 46 H 3.0681 0.4679 2.6047 0
M  V30 47 C 1.667 0.3722 4.9965 0
M  V30 48 H 1.7972 0.2216 5.9561 0
M  V30 49 H 1.6192 -0.4904 4.534 0
M  V30 50 H 0.8327 0.8662 4.8536 0
M  V30 51 C 5.7996 2.9678 5.292 0
M  V30 52 H 5.2692 3.5977 5.8234 0
M  V30 53 H 6.1979 3.4378 4.5299 0
M  V30 54 H 6.5105 2.588 5.8495 0
M  V30 55 C 5.5728 0.9304 3.9077 0
M  V30 56 H 5.0534 0.0994 3.9017 0
M  V30 57 H 6.4833 0.7442 4.219 0
M  V30 58 H 5.6069 1.3009 3.0011 0
M  V30 59 C 4.141 1.9388 7.6174 0
M  V30 60 C 5.1979 1.0607 7.7098 0
M  V30 61 H 5.4308 0.5301 6.9569 0
M  V30 62 C 5.9395 0.9351 8.9004 0
M  V30 63 H 6.6721 0.3311 8.9296 0
M  V30 64 C 5.6297 1.6608 10.0118 0
M  V30 65 H 6.1526 1.5727 10.7999 0
M  V30 66 C 4.5261 2.5459 9.9869 0
M  V30 67 C 3.7841 2.6839 8.7848 0
M  V30 68 C 4.1137 3.3224 11.0945 0
M  V30 69 H 4.587 3.2671 11.9164 0
M  V30 70 C 3.0369 4.1501 10.9822 0
M  V30 71 H 2.764 4.6831 11.7197 0
M  V30 72 C 2.3343 4.2093 9.7692 0 CHG=-1
M  V30 73 H 1.5772 4.7796 9.7067 0
M  V30 74 S 3.6996 6.2407 6.7284 0 CHG=2
M  V30 75 O 2.5854 5.3452 6.3521 0
M  V30 76 O 4.1168 7.0531 5.6083 0 CHG=-1
M  V30 77 O 4.7618 5.5292 7.4053 0 CHG=-1
M  V30 78 C 3.0018 7.3414 7.9118 0
M  V30 79 H 3.6883 7.9705 8.2174 0
M  V30 80 H 2.6651 6.8287 8.6761 0
M  V30 81 H 2.2636 7.8378 7.5007 0
M  V30 82 S -0.1962 -2.3442 11.354 0 CHG=2
M  V30 83 O 0.9202 -2.2261 10.4359 0 CHG=-1
M  V30 84 O -1.2167 -1.3365 11.1133 0 CHG=-1
M  V30 85 O -0.7181 -3.6925 11.4401 0
M  V30 86 C 0.4666 -1.9849 12.9548 0
M  V30 87 H 1.2176 -2.5865 13.14 0
M  V30 88 H -0.2294 -2.113 13.6327 0
M  V30 89 H 0.7785 -1.0561 12.9783 0
M  V30 END ATOM
M  V30 BEGIN BOND
M  V30 1 1 1 2
M  V30 2 1 1 5
M  V30 3 2 1 6
M  V30 4 2 1 9
M  V30 5 1 1 75
M  V30 6 2 2 10
M  V30 7 1 2 27
M  V30 8 1 3 10
M  V30 9 1 3 11
M  V30 10 1 3 15
M  V30 11 1 4 10
M  V30 12 1 4 19
M  V30 13 1 4 23
M  V30 14 1 5 35
M  V30 15 2 5 40
M  V30 16 1 6 42
M  V30 17 1 6 59
M  V30 18 1 7 42
M  V30 19 1 7 43
M  V30 20 1 7 47
M  V30 21 1 8 42
M  V30 22 1 8 51
M  V30 23 1 8 55
M  V30 24 1 9 67
M  V30 25 1 9 72
M  V30 26 1 11 12
M  V30 27 1 11 13
M  V30 28 1 11 14
M  V30 29 1 15 16
M  V30 30 1 15 17
M  V30 31 1 15 18
M  V30 32 1 19 20
M  V30 33 1 19 21
M  V30 34 1 19 22
M  V30 35 1 23 24
M  V30 36 1 23 25
M  V30 37 1 23 26
M  V30 38 2 27 28
M  V30 39 2 27 35
M  V30 40 1 28 29
M  V30 41 1 28 30
M  V30 42 1 30 31
M  V30 43 2 30 32
M  V30 44 1 32 33
M  V30 45 1 32 34
M  V30 46 2 34 35
M  V30 47 1 34 36
M  V30 48 1 36 37
M  V30 49 2 36 38
M  V30 50 1 38 39
M  V30 51 1 38 40
M  V30 52 1 40 41
M  V30 53 1 43 44
M  V30 54 1 43 45
M  V30 55 1 43 46
M  V30 56 1 47 48
M  V30 57 1 47 49
M  V30 58 1 47 50
M  V30 59 1 51 52
M  V30 60 1 51 53
M  V30 61 1 51 54
M  V30 62 1 55 56
M  V30 63 1 55 57
M  V30 64 1 55 58
M  V30 65 2 59 60
M  V30 66 2 59 67
M  V30 67 1 60 61
M  V30 68 1 60 62
M  V30 69 1 62 63
M  V30 70 2 62 64
M  V30 71 1 64 65
M  V30 72 1 64 66
M  V30 73 2 66 67
M  V30 74 1 66 68
M  V30 75 1 68 69
M  V30 76 2 68 70
M  V30 77 1 70 71
M  V30 78 1 70 72
M  V30 79 1 72 73
M  V30 80 1 74 75
M  V30 81 1 74 76
M  V30 82 1 74 77
M  V30 83 1 74 78
M  V30 84 1 78 79
M  V30 85 1 78 80
M  V30 86 1 78 81
M  V30 87 1 82 83
M  V30 88 1 82 84
M  V30 89 1 82 85
M  V30 90 1 82 86
M  V30 91 1 86 87
M  V30 92 1 86 88
M  V30 93 1 86 89
M  V30 END BOND
M  V30 END CTAB
M  END
