Molecule Name
 OpenBabel02172217463D
Created by GaussView 6.0.16
  0  0  0     0  0            999 V3000
M  V30 BEGIN CTAB
M  V30 COUNTS 108 114 0 0 0
M  V30 BEGIN ATOM
M  V30 1 Cu -1.2485 -0.6072 -0.3074 0
M  V30 2 Cu 1.3155 0.527 0.3833 0
M  V30 3 O -0.0965 -0.3649 1.0649 0
M  V30 4 O 0.1617 0.2899 -0.988 0
M  V30 5 N -4.4054 0.6309 -0.5303 0
M  V30 6 N -3.372 1.2132 0.1319 0
M  V30 7 N -3.9016 -1.684 -0.1028 0
M  V30 8 N -2.6745 -1.7553 0.4978 0
M  V30 9 N 3.3383 -1.2371 -0.241 0
M  V30 10 N 4.4188 -0.7393 0.4108 0
M  V30 11 N 2.7066 1.7364 -0.3841 0
M  V30 12 N 3.9633 1.6027 0.1358 0
M  V30 13 C -4.2658 -0.6865 -1.1006 0
M  V30 14 C -3.8927 2.3172 0.6784 0
M  V30 15 C -5.268 2.4367 0.3503 0
M  V30 16 C -5.5646 1.3386 -0.4068 0
M  V30 17 C -3.0964 3.2834 1.5264 0
M  V30 18 C -2.7867 -2.7015 1.4623 0
M  V30 19 C -4.0964 -3.2148 1.4537 0
M  V30 20 C -4.7691 -2.5476 0.4662 0
M  V30 21 C -1.7022 -3.1218 2.4343 0
M  V30 22 C 4.3452 0.546 1.0634 0
M  V30 23 C 4.8106 2.4996 -0.4123 0
M  V30 24 C 4.0917 3.2509 -1.3033 0
M  V30 25 C 2.7749 2.7555 -1.2724 0
M  V30 26 C 1.6278 3.2758 -2.1134 0
M  V30 27 C 5.5486 -1.4608 0.1685 0
M  V30 28 C 5.1818 -2.4846 -0.6621 0
M  V30 29 C 3.7984 -2.303 -0.9081 0
M  V30 30 C 2.9338 -3.0964 -1.8651 0
M  V30 31 H -5.2608 -0.9734 -1.4362 0
M  V30 32 H -5.9503 3.2184 0.6389 0
M  V30 33 H -4.4924 -3.9859 2.0901 0
M  V30 34 H 5.3613 0.7872 1.3702 0
M  V30 35 H 4.4618 4.0669 -1.8979 0
M  V30 36 H 5.8235 -3.2607 -1.0428 0
M  V30 37 C -3.3514 -0.747 -2.3034 0
M  V30 38 C -3.8838 -0.794 -3.5843 0
M  V30 39 N -2.028 -0.7714 -2.0957 0
M  V30 40 C -3.0257 -0.8783 -4.6745 0
M  V30 41 H -4.9576 -0.7696 -3.7231 0
M  V30 42 C -1.1918 -0.8569 -3.143 0
M  V30 43 C -1.6566 -0.9175 -4.4468 0
M  V30 44 H -3.4224 -0.9214 -5.6816 0
M  V30 45 C 3.4793 0.5685 2.304 0
M  V30 46 C 4.0594 0.5565 3.5644 0
M  V30 47 N 2.1493 0.6286 2.1486 0
M  V30 48 C 3.2438 0.6218 4.6884 0
M  V30 49 H 5.1367 0.5033 3.6624 0
M  V30 50 C 1.3543 0.6991 3.228 0
M  V30 51 C 1.8689 0.7037 4.5148 0
M  V30 52 H 3.6785 0.6194 5.6806 0
M  V30 53 H -6.4848 1.0054 -0.8614 0
M  V30 54 H -5.7902 -2.6144 0.125 0
M  V30 55 H 6.498 -1.1941 0.6064 0
M  V30 56 H 5.8496 2.5309 -0.1243 0
M  V30 57 C 1.5331 -3.3061 -1.279 0
M  V30 58 H 0.9044 -3.8332 -2.002 0
M  V30 59 H 1.5799 -3.9064 -0.3691 0
M  V30 60 H 1.0658 -2.3499 -1.0344 0
M  V30 61 C 2.8319 -2.3025 -3.1852 0
M  V30 62 H 2.3919 -1.3171 -3.0117 0
M  V30 63 H 3.8169 -2.1588 -3.635 0
M  V30 64 H 2.2113 -2.8495 -3.9007 0
M  V30 65 C 3.5708 -4.4654 -2.1498 0
M  V30 66 H 3.6998 -5.0444 -1.2322 0
M  V30 67 H 2.9255 -5.0363 -2.8211 0
M  V30 68 H 4.5434 -4.3664 -2.6369 0
M  V30 69 C -0.418 -3.5215 1.6939 0
M  V30 70 H 0.318 -3.8794 2.4181 0
M  V30 71 H -0.6143 -4.3299 0.9858 0
M  V30 72 H 0.0174 -2.6754 1.1646 0
M  V30 73 C -1.4339 -1.9602 3.4107 0
M  V30 74 H -1.1 -1.0734 2.8689 0
M  V30 75 H -2.3342 -1.7087 3.9766 0
M  V30 76 H -0.6554 -2.2553 4.1188 0
M  V30 77 C -2.188 -4.3341 3.2491 0
M  V30 78 H -2.4135 -5.1889 2.6072 0
M  V30 79 H -1.3956 -4.6345 3.937 0
M  V30 80 H -3.0706 -4.0981 3.8477 0
M  V30 81 C -2.8072 4.5518 0.6973 0
M  V30 82 H -3.7345 5.0288 0.3729 0
M  V30 83 H -2.2513 5.2729 1.3022 0
M  V30 84 H -2.2175 4.3159 -0.1903 0
M  V30 85 C -1.7824 2.6483 1.9917 0
M  V30 86 H -1.9791 1.7696 2.6116 0
M  V30 87 H -1.1691 2.3348 1.1462 0
M  V30 88 H -1.2188 3.3737 2.5845 0
M  V30 89 C -3.9261 3.6749 2.7647 0
M  V30 90 H -3.3493 4.3617 3.3887 0
M  V30 91 H -4.8521 4.1821 2.4872 0
M  V30 92 H -4.1823 2.7985 3.3648 0
M  V30 93 C 1.2816 2.2361 -3.1975 0
M  V30 94 H 2.1472 2.0247 -3.8298 0
M  V30 95 H 0.9406 1.3051 -2.7402 0
M  V30 96 H 0.4819 2.6272 -3.8318 0
M  V30 97 C 0.3989 3.574 -1.2419 0
M  V30 98 H 0.6401 4.2915 -0.4542 0
M  V30 99 H -0.3838 4.0101 -1.867 0
M  V30 100 H -0.0016 2.665 -0.7934 0
M  V30 101 C 2.0573 4.5793 -2.8102 0
M  V30 102 H 1.218 4.9591 -3.3955 0
M  V30 103 H 2.3377 5.35 -2.0883 0
M  V30 104 H 2.8912 4.4195 -3.4972 0
M  V30 105 H -0.1379 -0.868 -2.9029 0
M  V30 106 H -0.949 -0.9951 -5.2618 0
M  V30 107 H 0.2933 0.7468 3.0271 0
M  V30 108 H 1.1948 0.7723 5.3585 0
M  V30 END ATOM
M  V30 BEGIN BOND
M  V30 1 1 1 3
M  V30 2 1 1 4
M  V30 3 1 1 39
M  V30 4 1 2 3
M  V30 5 1 2 4
M  V30 6 1 2 47
M  V30 7 1 5 6
M  V30 8 1 5 13
M  V30 9 1 5 16
M  V30 10 2 6 14
M  V30 11 1 7 8
M  V30 12 1 7 13
M  V30 13 1 7 20
M  V30 14 2 8 18
M  V30 15 1 9 10
M  V30 16 2 9 29
M  V30 17 1 10 22
M  V30 18 1 10 27
M  V30 19 1 11 12
M  V30 20 2 11 25
M  V30 21 1 12 22
M  V30 22 1 12 23
M  V30 23 1 13 31
M  V30 24 1 13 37
M  V30 25 1 14 15
M  V30 26 1 14 17
M  V30 27 2 15 16
M  V30 28 1 15 32
M  V30 29 1 16 53
M  V30 30 1 17 81
M  V30 31 1 17 85
M  V30 32 1 17 89
M  V30 33 1 18 19
M  V30 34 1 18 21
M  V30 35 2 19 20
M  V30 36 1 19 33
M  V30 37 1 20 54
M  V30 38 1 21 69
M  V30 39 1 21 73
M  V30 40 1 21 77
M  V30 41 1 22 34
M  V30 42 1 22 45
M  V30 43 2 23 24
M  V30 44 1 23 56
M  V30 45 1 24 25
M  V30 46 1 24 35
M  V30 47 1 25 26
M  V30 48 1 26 93
M  V30 49 1 26 97
M  V30 50 1 26 101
M  V30 51 2 27 28
M  V30 52 1 27 55
M  V30 53 1 28 29
M  V30 54 1 28 36
M  V30 55 1 29 30
M  V30 56 1 30 57
M  V30 57 1 30 61
M  V30 58 1 30 65
M  V30 59 1 37 38
M  V30 60 1 37 39
M  V30 61 2 38 40
M  V30 62 1 38 41
M  V30 63 1 39 42
M  V30 64 1 40 43
M  V30 65 1 40 44
M  V30 66 2 42 43
M  V30 67 1 42 105
M  V30 68 1 43 106
M  V30 69 1 45 46
M  V30 70 1 45 47
M  V30 71 2 46 48
M  V30 72 1 46 49
M  V30 73 1 47 50
M  V30 74 1 48 51
M  V30 75 1 48 52
M  V30 76 2 50 51
M  V30 77 1 50 107
M  V30 78 1 51 108
M  V30 79 1 57 58
M  V30 80 1 57 59
M  V30 81 1 57 60
M  V30 82 1 61 62
M  V30 83 1 61 63
M  V30 84 1 61 64
M  V30 85 1 65 66
M  V30 86 1 65 67
M  V30 87 1 65 68
M  V30 88 1 69 70
M  V30 89 1 69 71
M  V30 90 1 69 72
M  V30 91 1 73 74
M  V30 92 1 73 75
M  V30 93 1 73 76
M  V30 94 1 77 78
M  V30 95 1 77 79
M  V30 96 1 77 80
M  V30 97 1 81 82
M  V30 98 1 81 83
M  V30 99 1 81 84
M  V30 100 1 85 86
M  V30 101 1 85 87
M  V30 102 1 85 88
M  V30 103 1 89 90
M  V30 104 1 89 91
M  V30 105 1 89 92
M  V30 106 1 93 94
M  V30 107 1 93 95
M  V30 108 1 93 96
M  V30 109 1 97 98
M  V30 110 1 97 99
M  V30 111 1 97 100
M  V30 112 1 101 102
M  V30 113 1 101 103
M  V30 114 1 101 104
M  V30 END BOND
M  V30 END CTAB
M  END
