rv160 in P2(1)/n
 OpenBabel02242214443D
Generated from the CSD
  0  0  0     0  0            999 V3000
M  V30 BEGIN CTAB
M  V30 COUNTS 36 37 0 0 0
M  V30 BEGIN ATOM
M  V30 1 Zn 5.1549 0.6444 2.2442 0 CHG=-1
M  V30 2 N 4.6478 1.6932 3.9127 0 CHG=1
M  V30 3 N 2.6239 0.7104 4.5758 0
M  V30 4 N 6.8541 1.8552 2.1666 0
M  V30 5 N 3.6285 2.029 6.0763 0
M  V30 6 C 1.6137 0.9151 5.6157 0
M  V30 7 H 1.1776 0.0627 5.8674 0
M  V30 8 H 0.9226 1.5616 5.3248 0
M  V30 9 C 5.6646 2.7336 4.1562 0
M  V30 10 H 6.3356 2.405 4.8058 0
M  V30 11 H 5.2366 3.5429 4.533 0
M  V30 12 C 2.4452 1.4711 6.7611 0
M  V30 13 H 1.9516 2.1752 7.2516 0
M  V30 14 H 2.7036 0.7557 7.3947 0
M  V30 15 C 6.3406 3.0704 2.8375 0
M  V30 16 H 5.6917 3.5237 2.2429 0
M  V30 17 H 7.0907 3.6948 3.0037 0
M  V30 18 C 3.7135 1.4888 4.8105 0
M  V30 19 C 4.8088 2.206 6.9329 0
M  V30 20 H 5.2131 3.0809 6.7553 0
M  V30 21 H 5.4607 1.4999 6.7408 0
M  V30 22 H 4.5401 2.1553 7.874 0
M  V30 23 C 2.1938 0.3406 3.241 0
M  V30 24 H 2.7717 -0.3723 2.8973 0
M  V30 25 H 2.2518 1.1211 2.6511 0
M  V30 26 H 1.2671 0.0232 3.2726 0
M  V30 27 C 7.9939 1.2651 2.9008 0
M  V30 28 H 8.7159 1.9244 2.9677 0
M  V30 29 H 8.3173 0.4742 2.4209 0
M  V30 30 H 7.704 1.0056 3.8002 0
M  V30 31 C 7.297 2.2031 0.7995 0
M  V30 32 H 7.9866 2.8978 0.8464 0
M  V30 33 H 6.5331 2.5354 0.2833 0
M  V30 34 H 7.6648 1.4067 0.3627 0
M  V30 35 Cl 5.6292 -1.4737 2.7506 0
M  V30 36 Cl 4.0414 1.0189 0.3306 0
M  V30 END ATOM
M  V30 BEGIN BOND
M  V30 1 1 1 2
M  V30 2 1 1 4
M  V30 3 1 1 35
M  V30 4 1 1 36
M  V30 5 1 2 9
M  V30 6 2 2 18
M  V30 7 1 3 6
M  V30 8 1 3 18
M  V30 9 1 3 23
M  V30 10 1 4 15
M  V30 11 1 4 27
M  V30 12 1 4 31
M  V30 13 1 5 12
M  V30 14 1 5 18
M  V30 15 1 5 19
M  V30 16 1 6 7
M  V30 17 1 6 8
M  V30 18 1 6 12
M  V30 19 1 9 10
M  V30 20 1 9 11
M  V30 21 1 9 15
M  V30 22 1 12 13
M  V30 23 1 12 14
M  V30 24 1 15 16
M  V30 25 1 15 17
M  V30 26 1 19 20
M  V30 27 1 19 21
M  V30 28 1 19 22
M  V30 29 1 23 24
M  V30 30 1 23 25
M  V30 31 1 23 26
M  V30 32 1 27 28
M  V30 33 1 27 29
M  V30 34 1 27 30
M  V30 35 1 31 32
M  V30 36 1 31 33
M  V30 37 1 31 34
M  V30 END BOND
M  V30 END CTAB
M  END
