rv006 in P2(1)/c
 OpenBabel02242214443D
Generated from the CSD
  0  0  0     0  0            999 V3000
M  V30 BEGIN CTAB
M  V30 COUNTS 41 41 0 0 0
M  V30 BEGIN ATOM
M  V30 1 Zn 7.6585 6.5351 2.7072 0 CHG=-1
M  V30 2 Cl 6.0905 8.1258 2.357 0
M  V30 3 Cl 9.6627 6.802 1.7728 0
M  V30 4 N 6.5587 2.517 1.9682 0
M  V30 5 N 6.6979 4.7921 2.6074 0 CHG=1
M  V30 6 N 7.9475 6.6076 4.7809 0
M  V30 7 C 5.9587 1.6293 0.9733 0
M  V30 8 H 5.7854 2.1314 0.1498 0
M  V30 9 H 5.1154 1.2712 1.3213 0
M  V30 10 H 6.5732 0.8902 0.7821 0
M  V30 11 C 6.8226 3.824 1.7159 0
M  V30 12 N 7.2558 4.1269 0.4612 0
M  V30 13 C 5.6456 4.7057 3.639 0
M  V30 14 H 5.1833 3.8351 3.5471 0
M  V30 15 H 4.9785 5.4176 3.4706 0
M  V30 16 C 8.2801 8.001 5.1692 0
M  V30 17 H 8.3482 8.0608 6.145 0
M  V30 18 H 7.576 8.6051 4.8533 0
M  V30 19 H 9.1356 8.2572 4.7658 0
M  V30 20 C 8.1081 3.2437 -0.323 0
M  V30 21 H 8.3845 2.4822 0.2284 0
M  V30 22 H 8.9012 3.7357 -0.6218 0
M  V30 23 H 7.6119 2.919 -1.1032 0
M  V30 24 C 6.6777 6.2138 5.4572 0
M  V30 25 H 5.9845 6.8874 5.2431 0
M  V30 26 H 6.8223 6.2351 6.4363 0
M  V30 27 C 6.715 1.9253 3.2911 0
M  V30 28 H 7.3309 2.4717 3.8227 0
M  V30 29 H 7.0759 1.0185 3.2028 0
M  V30 30 H 5.8433 1.8879 3.7373 0
M  V30 31 C 6.1519 4.8407 5.0758 0
M  V30 32 H 5.4123 4.6072 5.6911 0
M  V30 33 H 6.8749 4.1791 5.2159 0
M  V30 34 C 6.9828 5.4128 -0.1574 0
M  V30 35 H 6.2786 5.8738 0.3445 0
M  V30 36 H 6.6882 5.2746 -1.0818 0
M  V30 37 H 7.7976 5.9573 -0.1522 0
M  V30 38 C 9.046 5.7137 5.1976 0
M  V30 39 H 9.1317 5.7344 6.1736 0
M  V30 40 H 9.8847 6.0146 4.7896 0
M  V30 41 H 8.8509 4.7986 4.9062 0
M  V30 END ATOM
M  V30 BEGIN BOND
M  V30 1 1 1 2
M  V30 2 1 1 3
M  V30 3 1 1 5
M  V30 4 1 1 6
M  V30 5 1 4 7
M  V30 6 1 4 11
M  V30 7 1 4 27
M  V30 8 2 5 11
M  V30 9 1 5 13
M  V30 10 1 6 16
M  V30 11 1 6 24
M  V30 12 1 6 38
M  V30 13 1 7 8
M  V30 14 1 7 9
M  V30 15 1 7 10
M  V30 16 1 11 12
M  V30 17 1 12 20
M  V30 18 1 12 34
M  V30 19 1 13 14
M  V30 20 1 13 15
M  V30 21 1 13 31
M  V30 22 1 16 17
M  V30 23 1 16 18
M  V30 24 1 16 19
M  V30 25 1 20 21
M  V30 26 1 20 22
M  V30 27 1 20 23
M  V30 28 1 24 25
M  V30 29 1 24 26
M  V30 30 1 24 31
M  V30 31 1 27 28
M  V30 32 1 27 29
M  V30 33 1 27 30
M  V30 34 1 31 32
M  V30 35 1 31 33
M  V30 36 1 34 35
M  V30 37 1 34 36
M  V30 38 1 34 37
M  V30 39 1 38 39
M  V30 40 1 38 40
M  V30 41 1 38 41
M  V30 END BOND
M  V30 END CTAB
M  END
