m17_a35sad in P2(1)
 OpenBabel02242214443D
Generated from the CSD
  0  0  0     0  0            999 V3000
M  V30 BEGIN CTAB
M  V30 COUNTS 81 111 0 0 1
M  V30 BEGIN ATOM
M  V30 1 Zn 6.6426 6.2162 7.1809 0 CHG=-2
M  V30 2 N 8.1923 5.3185 8.1623 0 CHG=1
M  V30 3 C 6.2425 4.072 8.9566 0
M  V30 4 H 6.3027 3.4393 8.1846 0
M  V30 5 Cl 6.8547 8.444 7.2089 0
M  V30 6 N 10.2247 6.0879 9.2861 0
M  V30 7 C 7.6539 4.581 9.3245 0
M  V30 8 H 7.5814 5.2067 10.1012 0
M  V30 9 Cl 6.0611 5.3148 5.1656 0
M  V30 10 N 10.0575 6.2171 7.0511 0
M  V30 11 C 8.5429 3.3811 9.7271 0
M  V30 12 H 8.6336 2.7653 8.9572 0
M  V30 13 H 9.4465 3.7065 9.9675 0
M  V30 14 N 5.4593 5.2672 8.5638 0 CHG=1
M  V30 15 C 7.9395 2.625 10.917 0
M  V30 16 H 8.5027 1.8388 11.1287 0
M  V30 17 H 7.9263 3.2158 11.7113 0
M  V30 18 N 3.4002 6.3397 8.2599 0
M  V30 19 C 6.5137 2.1619 10.6009 0
M  V30 20 H 6.1226 1.7292 11.4008 0
M  V30 21 H 6.5383 1.493 9.8715 0
M  V30 22 N 3.3918 4.1183 7.9773 0
M  V30 23 C 5.6334 3.3474 10.1785 0
M  V30 24 H 5.551 3.9833 10.9328 0
M  V30 25 H 4.7266 3.0213 9.9513 0
M  V30 26 C 9.4042 5.8462 8.1834 0
M  V30 27 C 11.3993 6.8452 8.8117 0
M  V30 28 H 12.2178 6.583 9.3032 0
M  V30 29 H 11.2605 7.8206 8.9086 0
M  V30 30 C 9.6702 5.775 5.7104 0
M  V30 31 H 8.6934 5.786 5.6323 0
M  V30 32 H 9.9998 4.8647 5.5587 0
M  V30 33 H 10.0581 6.3784 5.0427 0
M  V30 34 C 9.6415 6.5761 10.5478 0
M  V30 35 H 10.3123 7.0957 11.0382 0
M  V30 36 H 9.3568 5.813 11.0928 0
M  V30 37 H 8.8675 7.1443 10.3516 0
M  V30 38 C 4.1681 5.2038 8.2794 0
M  V30 39 C 3.9208 2.9488 7.2369 0
M  V30 40 H 4.5302 2.4444 7.8154 0
M  V30 41 H 4.4046 3.2568 6.4423 0
M  V30 42 H 3.1774 2.3718 6.9635 0
M  V30 43 C 1.9814 5.9549 8.1967 0
M  V30 44 H 1.4548 6.5978 7.6586 0
M  V30 45 H 1.5846 5.8823 9.1008 0
M  V30 46 C 2.0683 4.5981 7.5157 0
M  V30 47 H 1.3408 3.9963 7.8134 0
M  V30 48 H 2.0382 4.6851 6.53 0
M  V30 49 C 11.4831 6.4426 7.346 0
M  V30 50 H 11.862 7.1676 6.7884 0
M  V30 51 H 12.0173 5.6183 7.2228 0
M  V30 52 C 3.7433 7.5102 9.0558 0
M  V30 53 H 3.5129 7.3461 9.9941 0
M  V30 54 H 3.2433 8.2864 8.7275 0
M  V30 55 H 4.7046 7.6855 8.9813 0
M  V30 56 C 5.9232 5.3545 0.6022 0
M  V30 57 H 6.089 4.5116 1.0944 0
M  V30 58 H 5.1154 5.2555 0.0385 0
M  V30 59 C 5.8084 6.6205 1.6 0
M  V30 60 H 5.4451 7.4162 1.1364 0
M  V30 61 H 5.2435 6.4129 2.3861 0
M  V30 62 C 7.2291 6.8173 1.9872 0
M  V30 63 H 7.4406 6.3344 2.8251 0
M  V30 64 H 7.4365 7.7779 2.1063 0
M  V30 65 C 8.0383 6.2002 0.7435 0
M  V30 66 H 8.609 6.8899 0.3208 0
M  V30 67 H 8.6114 5.4484 1.0376 0
M  V30 68 O 7.0496 5.7507 -0.1572 0
M  V30 69 C 6.0263 5.2637 1.0278 0
M  V30 70 H 5.4075 5.2443 0.2552 0
M  V30 71 H 5.785 4.5017 1.6119 0
M  V30 72 C 5.8158 6.248 1.6252 0
M  V30 73 H 5.4031 6.0292 2.498 0
M  V30 74 H 5.186 6.8199 1.1188 0
M  V30 75 C 7.2572 7.0666 1.8676 0
M  V30 76 H 7.2244 7.9854 1.5005 0
M  V30 77 H 7.5035 7.1016 2.8259 0
M  V30 78 C 8.1292 6.2412 1.1335 0
M  V30 79 H 8.8507 5.9102 1.7251 0
M  V30 80 H 8.5451 6.7635 0.4026 0
M  V30 81 O 7.3435 5.0267 0.5316 0
M  V30 END ATOM
M  V30 BEGIN BOND
M  V30 1 1 1 2
M  V30 2 1 1 5
M  V30 3 1 1 9
M  V30 4 1 1 14
M  V30 5 1 2 7
M  V30 6 2 2 26
M  V30 7 1 3 4
M  V30 8 1 3 7
M  V30 9 1 3 14
M  V30 10 1 3 23
M  V30 11 1 6 26
M  V30 12 1 6 27
M  V30 13 1 6 34
M  V30 14 1 7 8
M  V30 15 1 7 11
M  V30 16 1 10 26
M  V30 17 1 10 30
M  V30 18 1 10 49
M  V30 19 1 11 12
M  V30 20 1 11 13
M  V30 21 1 11 15
M  V30 22 2 14 38
M  V30 23 1 15 16
M  V30 24 1 15 17
M  V30 25 1 15 19
M  V30 26 1 18 38
M  V30 27 1 18 43
M  V30 28 1 18 52
M  V30 29 1 19 20
M  V30 30 1 19 21
M  V30 31 1 19 23
M  V30 32 1 22 38
M  V30 33 1 22 39
M  V30 34 1 22 46
M  V30 35 1 23 24
M  V30 36 1 23 25
M  V30 37 1 27 28
M  V30 38 1 27 29
M  V30 39 1 27 49
M  V30 40 1 30 31
M  V30 41 1 30 32
M  V30 42 1 30 33
M  V30 43 1 34 35
M  V30 44 1 34 36
M  V30 45 1 34 37
M  V30 46 1 39 40
M  V30 47 1 39 41
M  V30 48 1 39 42
M  V30 49 1 43 44
M  V30 50 1 43 45
M  V30 51 1 43 46
M  V30 52 1 46 47
M  V30 53 1 46 48
M  V30 54 1 49 50
M  V30 55 1 49 51
M  V30 56 1 52 53
M  V30 57 1 52 54
M  V30 58 1 52 55
M  V30 59 1 56 57
M  V30 60 1 56 58
M  V30 61 1 56 59
M  V30 62 1 56 68
M  V30 63 1 56 70
M  V30 64 1 56 71
M  V30 65 1 56 72
M  V30 66 1 56 81
M  V30 67 1 57 69
M  V30 68 1 58 69
M  V30 69 1 59 60
M  V30 70 1 59 61
M  V30 71 1 59 62
M  V30 72 1 59 69
M  V30 73 1 59 73
M  V30 74 1 59 74
M  V30 75 1 59 75
M  V30 76 1 60 72
M  V30 77 1 61 72
M  V30 78 1 62 63
M  V30 79 1 62 64
M  V30 80 1 62 65
M  V30 81 1 62 72
M  V30 82 1 62 76
M  V30 83 1 62 77
M  V30 84 1 62 78
M  V30 85 1 63 75
M  V30 86 1 64 75
M  V30 87 1 65 66
M  V30 88 1 65 67
M  V30 89 1 65 68
M  V30 90 1 65 75
M  V30 91 1 65 79
M  V30 92 1 65 80
M  V30 93 1 65 81
M  V30 94 1 66 78
M  V30 95 1 67 78
M  V30 96 1 68 69
M  V30 97 1 68 78
M  V30 98 1 68 81
M  V30 99 1 69 70
M  V30 100 1 69 71
M  V30 101 1 69 72
M  V30 102 1 69 81
M  V30 103 1 72 73
M  V30 104 1 72 74
M  V30 105 1 72 75
M  V30 106 1 75 76
M  V30 107 1 75 77
M  V30 108 1 75 78
M  V30 109 1 78 79
M  V30 110 1 78 80
M  V30 111 1 78 81
M  V30 END BOND
M  V30 END CTAB
M  END
