Cr(CO)6.mol
  ChemDraw12072115163D

  0  0  0     0  0              0 V3000
M  V30 BEGIN CTAB
M  V30 COUNTS 13 12 0 0 0
M  V30 BEGIN ATOM
M  V30 1 Cr -0.286014 -0.058699 0.012163 0
M  V30 2 C -2.610707 1.103646 0.012163 0
M  V30 3 C -2.564170 -1.476994 0.012163 0
M  V30 4 C -0.286014 -2.847693 0.012163 0
M  V30 5 C 2.545285 1.103646 0.012163 0
M  V30 6 C 2.514614 -1.417766 1.142779 0
M  V30 7 C -0.301880 2.847693 0.012163 0
M  V30 8 O -0.301880 4.370693 0.012163 0
M  V30 9 O 3.929664 1.536962 -1.142779 0
M  V30 10 O 3.833570 -2.179266 1.142779 0
M  V30 11 O -0.286014 -4.370693 0.012163 0
M  V30 12 O -3.883127 -2.238494 0.012163 0
M  V30 13 O -3.929664 1.865146 0.012163 0
M  V30 END ATOM
M  V30 BEGIN BOND
M  V30 1 1 1 3 CFG=1
M  V30 2 1 1 4
M  V30 3 1 1 2 CFG=3
M  V30 4 1 1 6 CFG=1
M  V30 5 1 1 5 CFG=3
M  V30 6 1 1 7
M  V30 7 2 7 8
M  V30 8 2 5 9
M  V30 9 2 6 10
M  V30 10 2 4 11
M  V30 11 2 3 12
M  V30 12 2 2 13
M  V30 END BOND
M  V30 END CTAB
M  END
