Zn Cl2 N6 C16 H28 in P2(1)/c
 OpenBabel02242214443D
Generated from the CSD
  0  0  0     0  0            999 V3000
M  V30 BEGIN CTAB
M  V30 COUNTS 53 55 0 0 0
M  V30 BEGIN ATOM
M  V30 1 Zn 2.5989 1.3764 3.5347 0 CHG=-2
M  V30 2 Cl 4.0581 2.5977 4.7848 0
M  V30 3 Cl 3.6857 -0.3025 2.5232 0
M  V30 4 N 1.3946 2.6866 2.582 0 CHG=1
M  V30 5 N 1.3418 4.8472 1.4302 0
M  V30 6 N 2.1613 3.1172 0.3947 0
M  V30 7 N 0.9099 0.7706 4.4888 0 CHG=1
M  V30 8 N -0.5366 -1.0929 5.1348 0
M  V30 9 N 1.5649 -1.1491 5.7106 0
M  V30 10 C 1.6009 3.5121 1.5719 0
M  V30 11 C 0.9728 5.7604 2.5001 0
M  V30 12 H -0.0038 5.8133 2.5621 0
M  V30 13 H 1.3367 6.6502 2.3101 0
M  V30 14 H 1.3367 5.433 3.3491 0
M  V30 15 C 1.7606 5.2723 0.1485 0
M  V30 16 C 1.6192 6.6835 -0.3031 0
M  V30 17 H 2 6.7788 -1.2011 0
M  V30 18 H 2.0946 7.2744 0.3177 0
M  V30 19 H 0.6701 6.9266 -0.3233 0
M  V30 20 C 2.2747 4.2059 -0.4789 0
M  V30 21 C 2.906 4.059 -1.8244 0
M  V30 22 H 2.9905 4.9408 -2.2436 0
M  V30 23 H 2.3472 3.4824 -2.3862 0
M  V30 24 H 3.7945 3.6574 -1.7262 0
M  V30 25 C 2.4491 1.7406 0.0557 0
M  V30 26 H 3.3759 1.5318 0.2964 0
M  V30 27 H 2.324 1.6082 -0.9072 0
M  V30 28 H 1.8425 1.1492 0.5483 0
M  V30 29 C 0.3843 2.9861 3.6137 0
M  V30 30 H -0.3327 3.5537 3.2345 0
M  V30 31 H 0.8015 3.471 4.3693 0
M  V30 32 C -0.193 1.6637 4.0942 0
M  V30 33 H -0.7923 1.8193 4.8666 0
M  V30 34 H -0.7222 1.2448 3.37 0
M  V30 35 C 0.6398 -0.3905 5.0517 0
M  V30 36 C -1.7399 -0.8617 4.3313 0
M  V30 37 H -2.1584 -0.0188 4.6049 0
M  V30 38 H -2.3707 -1.5991 4.4679 0
M  V30 39 H -1.4953 -0.8124 3.3835 0
M  V30 40 C -0.3144 -2.3042 5.8268 0
M  V30 41 C -1.4039 -3.2877 6.0861 0
M  V30 42 H -1.0494 -4.038 6.6074 0
M  V30 43 H -1.7544 -3.6193 5.2331 0
M  V30 44 H -2.1242 -2.8525 6.5882 0
M  V30 45 C 0.9813 -2.3352 6.1754 0
M  V30 46 C 1.78 -3.3802 6.8748 0
M  V30 47 H 1.1985 -4.1334 7.1094 0
M  V30 48 H 2.1698 -3.002 7.6906 0
M  V30 49 H 2.4973 -3.6928 6.2846 0
M  V30 50 C 2.9178 -0.7153 6.0277 0
M  V30 51 H 3.5354 -1.0435 5.3412 0
M  V30 52 H 3.1796 -1.0742 6.9012 0
M  V30 53 H 2.9491 0.2638 6.0541 0
M  V30 END ATOM
M  V30 BEGIN BOND
M  V30 1 1 1 2
M  V30 2 1 1 3
M  V30 3 1 1 4
M  V30 4 1 1 7
M  V30 5 2 4 10
M  V30 6 1 4 29
M  V30 7 1 5 10
M  V30 8 1 5 11
M  V30 9 1 5 15
M  V30 10 1 6 10
M  V30 11 1 6 20
M  V30 12 1 6 25
M  V30 13 1 7 32
M  V30 14 2 7 35
M  V30 15 1 8 35
M  V30 16 1 8 36
M  V30 17 1 8 40
M  V30 18 1 9 35
M  V30 19 1 9 45
M  V30 20 1 9 50
M  V30 21 1 11 12
M  V30 22 1 11 13
M  V30 23 1 11 14
M  V30 24 1 15 16
M  V30 25 2 15 20
M  V30 26 1 16 17
M  V30 27 1 16 18
M  V30 28 1 16 19
M  V30 29 1 20 21
M  V30 30 1 21 22
M  V30 31 1 21 23
M  V30 32 1 21 24
M  V30 33 1 25 26
M  V30 34 1 25 27
M  V30 35 1 25 28
M  V30 36 1 29 30
M  V30 37 1 29 31
M  V30 38 1 29 32
M  V30 39 1 32 33
M  V30 40 1 32 34
M  V30 41 1 36 37
M  V30 42 1 36 38
M  V30 43 1 36 39
M  V30 44 1 40 41
M  V30 45 2 40 45
M  V30 46 1 41 42
M  V30 47 1 41 43
M  V30 48 1 41 44
M  V30 49 1 45 46
M  V30 50 1 46 47
M  V30 51 1 46 48
M  V30 52 1 46 49
M  V30 53 1 50 51
M  V30 54 1 50 52
M  V30 55 1 50 53
M  V30 END BOND
M  V30 END CTAB
M  END
