C16 H30 N6 O4 Zn in P-1
 OpenBabel02242214443D
Generated from the CSD
  0  0  0     0  0            999 V3000
M  V30 BEGIN CTAB
M  V30 COUNTS 57 59 0 0 0
M  V30 BEGIN ATOM
M  V30 1 Zn 5.0827 3.8565 3.7806 0 CHG=-3
M  V30 2 O 6.6041 2.7854 3.1376 0 CHG=1
M  V30 3 O 5.2062 1.3032 2.2242 0
M  V30 4 O 6.0628 5.429 4.4061 0 CHG=1
M  V30 5 O 4.1584 6.2665 5.2139 0
M  V30 6 N 3.7438 2.7026 4.7395 0 CHG=1
M  V30 7 N 4.5971 2.2499 6.8772 0
M  V30 8 N 3.212 0.7323 5.9918 0
M  V30 9 N 3.5298 4.4343 2.5938 0 CHG=1
M  V30 10 N 2.3622 6.3181 1.6254 0
M  V30 11 N 4.5501 6.0695 1.2762 0
M  V30 12 C 3.8497 1.9233 5.7845 0
M  V30 13 C 4.8898 3.639 7.1982 0
M  V30 14 H 5.3606 4.0558 6.4465 0
M  V30 15 H 5.4539 3.6775 7.9987 0
M  V30 16 H 4.052 4.1191 7.3656 0
M  V30 17 C 4.1765 1.3896 7.9931 0
M  V30 18 H 3.4785 1.8288 8.5408 0
M  V30 19 H 4.9436 1.1539 8.5728 0
M  V30 20 C 3.6325 0.1755 7.2883 0
M  V30 21 H 4.3303 -0.5173 7.1736 0
M  V30 22 H 2.8655 -0.2127 7.7794 0
M  V30 23 C 2.9691 -0.2183 4.9121 0
M  V30 24 H 2.0335 -0.1569 4.6271 0
M  V30 25 H 3.1551 -1.1269 5.2288 0
M  V30 26 H 3.5556 -0.0098 4.1551 0
M  V30 27 C 2.6667 2.4897 3.761 0
M  V30 28 H 1.8745 2.0952 4.2047 0
M  V30 29 H 2.9685 1.8712 3.0493 0
M  V30 30 C 2.3156 3.8431 3.1662 0
M  V30 31 H 1.6283 3.7346 2.4619 0
M  V30 32 H 1.9501 4.4365 3.8693 0
M  V30 33 C 3.4556 5.5388 1.9018 0 CHG=-1
M  V30 34 C 1.2345 6.5095 2.5408 0
M  V30 35 H 0.6846 5.6985 2.5557 0
M  V30 36 H 0.6918 7.2667 2.2367 0
M  V30 37 H 1.5729 6.6914 3.4424 0
M  V30 38 C 2.8156 7.5397 0.9418 0
M  V30 39 H 2.948 8.2827 1.5826 0
M  V30 40 H 2.1719 7.822 0.2446 0
M  V30 41 C 4.1268 7.0992 0.3329 0
M  V30 42 H 3.9983 6.7281 -0.5759 0
M  V30 43 H 4.7771 7.8446 0.2934 0
M  V30 44 C 5.6871 5.2412 0.9121 0
M  V30 45 H 6.1971 5.0142 1.7175 0
M  V30 46 H 6.2623 5.7318 0.2886 0
M  V30 47 H 5.3685 4.4189 0.4845 0
M  V30 48 C 6.3372 1.7104 2.479 0
M  V30 49 C 7.5321 0.9278 1.9899 0
M  V30 50 H 7.2649 0.0024 1.8094 0
M  V30 51 H 8.2321 0.9378 2.6757 0
M  V30 52 H 7.8749 1.3352 1.1672 0
M  V30 53 C 5.3484 6.3704 4.9227 0
M  V30 54 C 6.0942 7.6661 5.1694 0
M  V30 55 H 5.5655 8.4174 4.8281 0
M  V30 56 H 6.9584 7.6386 4.7081 0
M  V30 57 H 6.241 7.7805 6.1316 0
M  V30 END ATOM
M  V30 BEGIN BOND
M  V30 1 1 1 2
M  V30 2 1 1 4
M  V30 3 1 1 6
M  V30 4 2 1 9
M  V30 5 1 2 48
M  V30 6 2 3 48
M  V30 7 1 4 53
M  V30 8 2 5 53
M  V30 9 2 6 12
M  V30 10 1 6 27
M  V30 11 1 7 12
M  V30 12 1 7 13
M  V30 13 1 7 17
M  V30 14 1 8 12
M  V30 15 1 8 20
M  V30 16 1 8 23
M  V30 17 1 9 30
M  V30 18 1 9 33
M  V30 19 1 10 33
M  V30 20 1 10 34
M  V30 21 1 10 38
M  V30 22 1 11 33
M  V30 23 1 11 41
M  V30 24 1 11 44
M  V30 25 1 13 14
M  V30 26 1 13 15
M  V30 27 1 13 16
M  V30 28 1 17 18
M  V30 29 1 17 19
M  V30 30 1 17 20
M  V30 31 1 20 21
M  V30 32 1 20 22
M  V30 33 1 23 24
M  V30 34 1 23 25
M  V30 35 1 23 26
M  V30 36 1 27 28
M  V30 37 1 27 29
M  V30 38 1 27 30
M  V30 39 1 30 31
M  V30 40 1 30 32
M  V30 41 1 34 35
M  V30 42 1 34 36
M  V30 43 1 34 37
M  V30 44 1 38 39
M  V30 45 1 38 40
M  V30 46 1 38 41
M  V30 47 1 41 42
M  V30 48 1 41 43
M  V30 49 1 44 45
M  V30 50 1 44 46
M  V30 51 1 44 47
M  V30 52 1 48 49
M  V30 53 1 49 50
M  V30 54 1 49 51
M  V30 55 1 49 52
M  V30 56 1 53 54
M  V30 57 1 54 55
M  V30 58 1 54 56
M  V30 59 1 54 57
M  V30 END BOND
M  V30 END CTAB
M  END
