SH_00404_1 in P2(1)/c
 OpenBabel02242214443D
Generated from the CSD
  0  0  0     0  0            999 V3000
M  V30 BEGIN CTAB
M  V30 COUNTS 48 49 0 0 1
M  V30 BEGIN ATOM
M  V30 1 Fe 3.4224 2.4818 7.6643 0 CHG=-1
M  V30 2 O 5.9016 -0.3142 9.584 0
M  V30 3 C 2.5543 0.5095 5.5616 0
M  V30 4 N 3.5827 0.9996 6.2597 0 CHG=1
M  V30 5 Cl 1.2528 2.9864 8.0357 0
M  V30 6 Cl 4.9766 4.1092 7.8548 0
M  V30 7 C 2.8365 -1.7835 6.3955 0
M  V30 8 H 2.1861 -2.5114 6.4829 0
M  V30 9 H 2.9439 -1.3358 7.2606 0
M  V30 10 H 3.699 -2.1489 6.1075 0
M  V30 11 O 4.3035 1.0775 8.9444 0
M  V30 12 N 1.6342 1.3312 5.0406 0
M  V30 13 C 1.9565 -1.3953 4.1385 0
M  V30 14 H 1.1386 -1.9205 4.263 0
M  V30 15 H 2.6693 -1.9762 3.7995 0
M  V30 16 H 1.7879 -0.6756 3.4951 0
M  V30 17 C 0.2362 0.9458 4.9115 0
M  V30 18 H -0.3331 1.6534 5.2796 0
M  V30 19 H 0.0804 0.1123 5.4029 0
M  V30 20 H 0.0203 0.8121 3.9649 0
M  V30 21 C 1.9263 2.7101 4.6728 0
M  V30 22 H 1.6195 2.8759 3.7569 0
M  V30 23 H 2.8925 2.8648 4.7266 0
M  V30 24 H 1.4635 3.3172 5.2873 0
M  V30 25 N 8.3119 -2.0415 5.6698 0
M  V30 26 C 4.8134 0.2951 6.1601 0
M  V30 27 C 5.2882 -0.0649 4.8994 0
M  V30 28 H 4.7977 0.2056 4.1321 0
M  V30 29 C 6.4422 -0.7984 4.7238 0
M  V30 30 H 6.7277 -1.0183 3.8449 0
M  V30 31 C 7.2035 -1.226 5.8274 0
M  V30 32 C 6.7663 -0.8262 7.0879 0
M  V30 33 H 7.2789 -1.0703 7.8496 0
M  V30 34 C 5.5967 -0.0764 7.2718 0
M  V30 35 C 5.2022 0.2853 8.6402 0
M  V30 36 C 5.6037 0.0711 10.9494 0
M  V30 37 H 6.2411 -0.3593 11.5567 0
M  V30 38 H 4.6935 -0.2114 11.1774 0
M  V30 39 H 5.6752 1.0445 11.0371 0
M  V30 40 C 9.0857 -2.4145 6.8335 0
M  V30 41 H 9.8126 -3.0139 6.5639 0
M  V30 42 H 8.5065 -2.8726 7.4778 0
M  V30 43 H 9.4621 -1.6098 7.2472 0
M  V30 44 C 8.9125 -2.1955 4.359 0
M  V30 45 H 9.7724 -2.6576 4.4459 0
M  V30 46 H 9.0553 -1.3122 3.9593 0
M  V30 47 H 8.3158 -2.7208 3.7859 0
M  V30 48 N 2.3615 -0.8238 5.4076 0
M  V30 END ATOM
M  V30 BEGIN BOND
M  V30 1 1 1 4
M  V30 2 1 1 5
M  V30 3 1 1 6
M  V30 4 1 1 11
M  V30 5 1 2 35
M  V30 6 1 2 36
M  V30 7 2 3 4
M  V30 8 1 3 12
M  V30 9 1 3 48
M  V30 10 1 4 26
M  V30 11 1 7 8
M  V30 12 1 7 9
M  V30 13 1 7 10
M  V30 14 1 7 48
M  V30 15 1 11 35
M  V30 16 1 12 17
M  V30 17 1 12 21
M  V30 18 1 13 14
M  V30 19 1 13 15
M  V30 20 1 13 16
M  V30 21 1 13 48
M  V30 22 1 17 18
M  V30 23 1 17 19
M  V30 24 1 17 20
M  V30 25 1 21 22
M  V30 26 1 21 23
M  V30 27 1 21 24
M  V30 28 1 25 31
M  V30 29 1 25 40
M  V30 30 1 25 44
M  V30 31 2 26 27
M  V30 32 2 26 34
M  V30 33 1 27 28
M  V30 34 1 27 29
M  V30 35 1 29 30
M  V30 36 2 29 31
M  V30 37 1 31 32
M  V30 38 1 32 33
M  V30 39 2 32 34
M  V30 40 1 34 35
M  V30 41 1 36 37
M  V30 42 1 36 38
M  V30 43 1 36 39
M  V30 44 1 40 41
M  V30 45 1 40 42
M  V30 46 1 40 43
M  V30 47 1 44 45
M  V30 48 1 44 46
M  V30 49 1 44 47
M  V30 END BOND
M  V30 END CTAB
M  END
