G03 nun gute Energie auf Geometrie von oben
 OpenBabel02172217463D
Created by GaussView 6.0.16
  0  0  0     0  0            999 V3000
M  V30 BEGIN CTAB
M  V30 COUNTS 108 110 0 0 0
M  V30 BEGIN ATOM
M  V30 1 Cu 1.6075 -0.1071 -0.4529 0
M  V30 2 Cu -1.8819 0.5503 0.3533 0
M  V30 3 O -0.38 -0.2531 -0.5335 0
M  V30 4 O 0.105 0.6701 0.4698 0
M  V30 5 N 4.1572 1.0954 -1.6257 0
M  V30 6 N 2.8355 1.3893 -1.779 0
M  V30 7 N 4.0299 -1.2815 -1.365 0
M  V30 8 N 2.686 -1.5062 -1.4248 0
M  V30 9 N -2.9731 -0.8784 1.8491 0
M  V30 10 N -4.3115 -0.6688 1.7307 0
M  V30 11 N -2.9901 1.9882 1.2351 0
M  V30 12 N -4.3178 1.6822 1.2884 0
M  V30 13 C 4.5798 -0.0408 -0.8315 0
M  V30 14 C 2.7971 2.378 -2.6825 0
M  V30 15 C 4.1081 2.7166 -3.0949 0
M  V30 16 C 4.9437 1.8742 -2.4143 0
M  V30 17 C 1.5224 3.0247 -3.175 0
M  V30 18 C 2.5288 -2.6407 -2.1344 0
M  V30 19 C 3.7919 -3.1322 -2.5169 0
M  V30 20 C 4.7138 -2.2439 -2.025 0
M  V30 21 C 1.1808 -3.2414 -2.4735 0
M  V30 22 C -4.825 0.381 0.8722 0
M  V30 23 C -5.0213 2.6692 1.8884 0
M  V30 24 C -4.1294 3.6555 2.225 0
M  V30 25 C -2.8632 3.1999 1.8094 0
M  V30 26 C -1.54 3.9165 1.9719 0
M  V30 27 C -5.0235 -1.4241 2.6055 0
M  V30 28 C -4.1151 -2.1659 3.3142 0
M  V30 29 C -2.8437 -1.7905 2.8254 0
M  V30 30 C -1.4966 -2.2546 3.3379 0
M  V30 31 H 5.658 -0.1181 -0.957 0
M  V30 32 H 4.3991 3.4736 -3.8035 0
M  V30 33 H 3.9992 -4.0237 -3.0825 0
M  V30 34 H -5.8998 0.4143 1.0382 0
M  V30 35 H -4.3594 4.5894 2.707 0
M  V30 36 H -4.3368 -2.8832 4.0853 0
M  V30 37 C 4.2821 0.1363 0.6434 0
M  V30 38 C 5.3041 0.2924 1.5684 0
M  V30 39 N 2.9907 0.1464 1.0007 0
M  V30 40 C 4.9747 0.463 2.9094 0
M  V30 41 H 6.3389 0.2809 1.2483 0
M  V30 42 C 2.6705 0.3108 2.2921 0
M  V30 43 C 3.6354 0.4716 3.2759 0
M  V30 44 H 5.7533 0.5853 3.6525 0
M  V30 45 C -4.5768 0.1131 -0.5989 0
M  V30 46 C -5.6253 -0.1571 -1.466 0
M  V30 47 N -3.3025 0.1458 -1.0132 0
M  V30 48 C -5.3422 -0.3979 -2.8069 0
M  V30 49 H -6.6453 -0.1783 -1.1019 0
M  V30 50 C -3.0264 -0.0864 -2.3043 0
M  V30 51 C -4.0208 -0.3605 -3.232 0
M  V30 52 H -6.143 -0.6087 -3.5053 0
M  V30 53 H 6.017 1.7652 -2.4236 0
M  V30 54 H 5.7901 -2.2192 -2.091 0
M  V30 55 H -6.1004 -1.3757 2.6475 0
M  V30 56 H -6.0884 2.5919 2.0251 0
M  V30 57 C -0.5986 -2.6836 2.1698 0
M  V30 58 H 0.3743 -3.0045 2.5514 0
M  V30 59 H -1.0416 -3.5206 1.6259 0
M  V30 60 H -0.4436 -1.8623 1.4686 0
M  V30 61 C -0.836 -1.0895 4.1032 0
M  V30 62 H -0.686 -0.2285 3.4473 0
M  V30 63 H -1.4524 -0.771 4.9469 0
M  V30 64 H 0.1336 -1.4094 4.495 0
M  V30 65 C -1.6782 -3.4416 4.2959 0
M  V30 66 H -2.1643 -4.2854 3.8004 0
M  V30 67 H -0.7004 -3.7774 4.6477 0
M  V30 68 H -2.2669 -3.1672 5.1743 0
M  V30 69 C 0.4199 -3.5915 -1.184 0
M  V30 70 H -0.5371 -4.0538 -1.439 0
M  V30 71 H 0.9868 -4.3004 -0.5762 0
M  V30 72 H 0.2186 -2.7018 -0.5874 0
M  V30 73 C 0.3744 -2.2309 -3.3123 0
M  V30 74 H 0.2182 -1.2992 -2.7647 0
M  V30 75 H 0.8899 -1.9989 -4.2472 0
M  V30 76 H -0.6013 -2.6582 -3.5578 0
M  V30 77 C 1.3792 -4.5223 -3.2986 0
M  V30 78 H 1.9359 -5.2782 -2.7397 0
M  V30 79 H 0.4033 -4.9451 -3.5453 0
M  V30 80 H 1.9027 -4.3232 -4.2366 0
M  V30 81 C 1.4387 4.4525 -2.5958 0
M  V30 82 H 2.2946 5.0543 -2.9082 0
M  V30 83 H 0.5314 4.945 -2.9548 0
M  V30 84 H 1.4146 4.4341 -1.5044 0
M  V30 85 C 0.2925 2.2168 -2.7551 0
M  V30 86 H 0.3249 1.2108 -3.1815 0
M  V30 87 H 0.2207 2.1295 -1.6702 0
M  V30 88 H -0.6097 2.7145 -3.1196 0
M  V30 89 C 1.5647 3.1086 -4.7138 0
M  V30 90 H 0.6483 3.5789 -5.0783 0
M  V30 91 H 2.4057 3.7103 -5.0634 0
M  V30 92 H 1.6442 2.116 -5.1634 0
M  V30 93 C -0.6166 3.0929 2.8907 0
M  V30 94 H -1.0629 2.962 3.8791 0
M  V30 95 H -0.4147 2.1068 2.4682 0
M  V30 96 H 0.335 3.6162 3.0123 0
M  V30 97 C -0.879 4.1144 0.5974 0
M  V30 98 H -1.5232 4.693 -0.0686 0
M  V30 99 H 0.0591 4.6604 0.7213 0
M  V30 100 H -0.6527 3.1583 0.1228 0
M  V30 101 C -1.7741 5.2931 2.6134 0
M  V30 102 H -0.8161 5.8046 2.7253 0
M  V30 103 H -2.417 5.9223 1.9934 0
M  V30 104 H -2.2209 5.206 3.6066 0
M  V30 105 H -1.981 -0.0455 -2.5794 0
M  V30 106 H -3.757 -0.5382 -4.2665 0
M  V30 107 H 1.6133 0.3092 2.5214 0
M  V30 108 H 3.3349 0.5993 4.3077 0
M  V30 END ATOM
M  V30 BEGIN BOND
M  V30 1 1 1 4
M  V30 2 1 2 3
M  V30 3 1 5 6
M  V30 4 1 5 13
M  V30 5 1 5 16
M  V30 6 2 6 14
M  V30 7 1 7 8
M  V30 8 1 7 13
M  V30 9 1 7 20
M  V30 10 2 8 18
M  V30 11 1 9 10
M  V30 12 2 9 29
M  V30 13 1 10 22
M  V30 14 1 10 27
M  V30 15 1 11 12
M  V30 16 2 11 25
M  V30 17 1 12 22
M  V30 18 1 12 23
M  V30 19 1 13 31
M  V30 20 1 13 37
M  V30 21 1 14 15
M  V30 22 1 14 17
M  V30 23 2 15 16
M  V30 24 1 15 32
M  V30 25 1 16 53
M  V30 26 1 17 81
M  V30 27 1 17 85
M  V30 28 1 17 89
M  V30 29 1 18 19
M  V30 30 1 18 21
M  V30 31 2 19 20
M  V30 32 1 19 33
M  V30 33 1 20 54
M  V30 34 1 21 69
M  V30 35 1 21 73
M  V30 36 1 21 77
M  V30 37 1 22 34
M  V30 38 1 22 45
M  V30 39 2 23 24
M  V30 40 1 23 56
M  V30 41 1 24 25
M  V30 42 1 24 35
M  V30 43 1 25 26
M  V30 44 1 26 93
M  V30 45 1 26 97
M  V30 46 1 26 101
M  V30 47 2 27 28
M  V30 48 1 27 55
M  V30 49 1 28 29
M  V30 50 1 28 36
M  V30 51 1 29 30
M  V30 52 1 30 57
M  V30 53 1 30 61
M  V30 54 1 30 65
M  V30 55 2 37 38
M  V30 56 1 37 39
M  V30 57 1 38 40
M  V30 58 1 38 41
M  V30 59 2 39 42
M  V30 60 2 40 43
M  V30 61 1 40 44
M  V30 62 1 42 43
M  V30 63 1 42 107
M  V30 64 1 43 108
M  V30 65 2 45 46
M  V30 66 1 45 47
M  V30 67 1 46 48
M  V30 68 1 46 49
M  V30 69 2 47 50
M  V30 70 2 48 51
M  V30 71 1 48 52
M  V30 72 1 50 51
M  V30 73 1 50 105
M  V30 74 1 51 106
M  V30 75 1 57 58
M  V30 76 1 57 59
M  V30 77 1 57 60
M  V30 78 1 61 62
M  V30 79 1 61 63
M  V30 80 1 61 64
M  V30 81 1 65 66
M  V30 82 1 65 67
M  V30 83 1 65 68
M  V30 84 1 69 70
M  V30 85 1 69 71
M  V30 86 1 69 72
M  V30 87 1 73 74
M  V30 88 1 73 75
M  V30 89 1 73 76
M  V30 90 1 77 78
M  V30 91 1 77 79
M  V30 92 1 77 80
M  V30 93 1 81 82
M  V30 94 1 81 83
M  V30 95 1 81 84
M  V30 96 1 85 86
M  V30 97 1 85 87
M  V30 98 1 85 88
M  V30 99 1 89 90
M  V30 100 1 89 91
M  V30 101 1 89 92
M  V30 102 1 93 94
M  V30 103 1 93 95
M  V30 104 1 93 96
M  V30 105 1 97 98
M  V30 106 1 97 99
M  V30 107 1 97 100
M  V30 108 1 101 102
M  V30 109 1 101 103
M  V30 110 1 101 104
M  V30 END BOND
M  V30 END CTAB
M  END
