tv027_0m in P2(1)
 OpenBabel02242214443D
Generated from the CSD
  0  0  0     0  0            999 V3000
M  V30 BEGIN CTAB
M  V30 COUNTS 68 71 0 0 1
M  V30 BEGIN ATOM
M  V30 1 Zn 3.298 2.2008 1.2213 0 CHG=-2
M  V30 2 C 4.5921 -1.36 4.9404 0
M  V30 3 H 4.5757 -0.7662 5.7324 0
M  V30 4 H 5.156 -2.1444 5.1566 0
M  V30 5 Cl 3.5047 4.4165 1.2517 0
M  V30 6 C 3.1754 -1.8246 4.6245 0
M  V30 7 H 3.2032 -2.4954 3.897 0
M  V30 8 H 2.7843 -2.2565 5.4249 0
M  V30 9 Cl 2.7199 1.3122 -0.7844 0
M  V30 10 C 2.8994 0.0708 2.9857 0
M  V30 11 H 2.9603 -0.5612 2.2131 0
M  V30 12 C 4.3086 0.5777 3.3516 0
M  V30 13 H 4.2348 1.2052 4.1267 0
M  V30 14 C 5.1937 -0.6133 3.7592 0
M  V30 15 H 5.288 -1.2316 2.9918 0
M  V30 16 H 6.096 -0.2856 4.0014 0
M  V30 17 N 4.8431 1.3115 2.1967 0 CHG=1
M  V30 18 N 2.122 1.2571 2.5929 0 CHG=1
M  V30 19 C 6.0432 1.8467 2.2149 0
M  V30 20 C 0.8353 1.1896 2.3189 0
M  V30 21 N 0.0667 2.32 2.3099 0
M  V30 22 N 0.0616 0.1067 2.0283 0
M  V30 23 N 6.6942 2.2225 1.0949 0
M  V30 24 N 6.8623 2.0915 3.3146 0
M  V30 25 C -1.2556 0.5821 1.5839 0
M  V30 26 H -1.9794 -0.0191 1.8916 0
M  V30 27 H -1.2963 0.6646 0.5982 0
M  V30 28 C -1.3385 1.9321 2.2537 0
M  V30 29 H -1.8691 2.5712 1.7152 0
M  V30 30 H -1.7314 1.8629 3.1598 0
M  V30 31 C 0.4139 3.4904 3.09 0
M  V30 32 H -0.0845 4.2652 2.756 0
M  V30 33 H 1.3756 3.6619 3.0112 0
M  V30 34 H 0.1856 3.3357 4.0304 0
M  V30 35 C 0.596 -1.0494 1.2911 0
M  V30 36 H -0.1453 -1.6119 0.9838 0
M  V30 37 H 1.1795 -1.5714 1.8806 0
M  V30 38 H 1.1096 -0.7349 0.518 0
M  V30 39 C 6.2699 2.5648 4.5698 0
M  V30 40 H 6.9345 3.0834 5.0695 0
M  V30 41 H 5.9845 1.7961 5.1066 0
M  V30 42 H 5.4949 3.131 4.3722 0
M  V30 43 C 8.021 2.8576 2.8381 0
M  V30 44 H 8.843 2.6096 3.3309 0
M  V30 45 H 7.8692 3.8318 2.9282 0
M  V30 46 C 8.1076 2.4491 1.389 0
M  V30 47 H 8.4872 3.1706 0.8273 0
M  V30 48 H 8.6425 1.6243 1.2725 0
M  V30 49 C 6.3124 1.7777 -0.2407 0
M  V30 50 H 6.6827 2.3925 -0.9081 0
M  V30 51 H 5.3352 1.7659 -0.3142 0
M  V30 52 H 6.6626 0.8759 -0.3973 0
M  V30 53 C 2.3007 -0.6573 4.2022 0
M  V30 54 H 2.2135 -0.0217 4.9562 0
M  V30 55 H 1.3961 -0.9891 3.975 0
M  V30 56 C -3.8218 1.3194 6.6272 0
M  V30 57 H -3.7727 0.5178 7.2061 0
M  V30 58 H -4.5808 1.2094 6.0011 0
M  V30 59 C -4.0043 2.5141 7.4354 0
M  V30 60 H -4.5379 2.3202 8.2464 0
M  V30 61 H -4.4486 3.2321 6.9184 0
M  V30 62 C -2.5877 2.8936 7.7912 0
M  V30 63 H -2.3473 2.5666 8.6942 0
M  V30 64 H -2.463 3.8752 7.7592 0
M  V30 65 C -1.756 2.1988 6.7158 0
M  V30 66 H -1.2806 2.8644 6.1581 0
M  V30 67 H -1.0892 1.5936 7.1271 0
M  V30 68 O -2.6724 1.4724 5.9442 0
M  V30 END ATOM
M  V30 BEGIN BOND
M  V30 1 1 1 5
M  V30 2 1 1 9
M  V30 3 1 1 17
M  V30 4 1 1 18
M  V30 5 1 2 3
M  V30 6 1 2 4
M  V30 7 1 2 6
M  V30 8 1 2 14
M  V30 9 1 6 7
M  V30 10 1 6 8
M  V30 11 1 6 53
M  V30 12 1 10 11
M  V30 13 1 10 12
M  V30 14 1 10 18
M  V30 15 1 10 53
M  V30 16 1 12 13
M  V30 17 1 12 14
M  V30 18 1 12 17
M  V30 19 1 14 15
M  V30 20 1 14 16
M  V30 21 2 17 19
M  V30 22 2 18 20
M  V30 23 1 19 23
M  V30 24 1 19 24
M  V30 25 1 20 21
M  V30 26 1 20 22
M  V30 27 1 21 28
M  V30 28 1 21 31
M  V30 29 1 22 25
M  V30 30 1 22 35
M  V30 31 1 23 46
M  V30 32 1 23 49
M  V30 33 1 24 39
M  V30 34 1 24 43
M  V30 35 1 25 26
M  V30 36 1 25 27
M  V30 37 1 25 28
M  V30 38 1 28 29
M  V30 39 1 28 30
M  V30 40 1 31 32
M  V30 41 1 31 33
M  V30 42 1 31 34
M  V30 43 1 35 36
M  V30 44 1 35 37
M  V30 45 1 35 38
M  V30 46 1 39 40
M  V30 47 1 39 41
M  V30 48 1 39 42
M  V30 49 1 43 44
M  V30 50 1 43 45
M  V30 51 1 43 46
M  V30 52 1 46 47
M  V30 53 1 46 48
M  V30 54 1 49 50
M  V30 55 1 49 51
M  V30 56 1 49 52
M  V30 57 1 53 54
M  V30 58 1 53 55
M  V30 59 1 56 57
M  V30 60 1 56 58
M  V30 61 1 56 59
M  V30 62 1 56 68
M  V30 63 1 59 60
M  V30 64 1 59 61
M  V30 65 1 59 62
M  V30 66 1 62 63
M  V30 67 1 62 64
M  V30 68 1 62 65
M  V30 69 1 65 66
M  V30 70 1 65 67
M  V30 71 1 65 68
M  V30 END BOND
M  V30 END CTAB
M  END
