tv295_0m in P2(1)/c
 OpenBabel02242214453D
Generated from the CSD
  0  0  0     0  0            999 V3000
M  V30 BEGIN CTAB
M  V30 COUNTS 46 69 0 0 1
M  V30 BEGIN ATOM
M  V30 1 Zn 1.9543 8.0248 3.2248 0
M  V30 2 Cl 3.01 9.5273 4.4731 0
M  V30 3 Cl -0.0122 7.3196 4.0996 0
M  V30 4 C 2.7456 6.2969 2.5324 0
M  V30 5 C 1.1571 10.8232 1.4461 0
M  V30 6 C 2.3169 4.0351 2.9894 0
M  V30 7 C 2.3477 6.2163 1.0965 0
M  V30 8 C 2.0398 8.6646 1.2943 0
M  V30 9 C 3.6832 5.2517 4.2991 0
M  V30 10 C 2.8666 5.2151 3.2316 0
M  V30 11 C 2.8613 10.4567 -0.0102 0
M  V30 12 C 3.5226 4.5048 5.4877 0
M  V30 13 C 2.0783 9.8447 0.9311 0
M  V30 14 C 2.0949 7.5891 -1.0164 0
M  V30 15 C 3.1943 5.1484 0.2848 0
M  V30 16 C 2.6353 7.6029 0.4451 0
M  V30 17 C 2.3406 11.4113 -1.0266 0
M  V30 18 C 4.7191 6.2982 4.5242 0
M  V30 19 C 1.5613 12.1544 1.7906 0
M  V30 20 C 3.7743 10.8811 -1.0488 0
M  V30 21 C 2.8457 6.5148 -1.8537 0
M  V30 22 C 2.9491 2.7467 3.0611 0
M  V30 23 C 4.2587 10.0839 -0.237 0
M  V30 24 C 2.9906 12.1871 4.4219 0
M  V30 25 C 0.8978 3.9809 2.4437 0
M  V30 26 C 2.732 5.1811 -1.1596 0
M  V30 27 C 0.0272 10.3232 2.1794 0
M  V30 28 C 5.2607 7.2931 6.4717 0
M  V30 29 C 2.2954 9.5638 6.1852 0
M  V30 30 C 1.9433 1.1989 3.2043 0
M  V30 31 C 2.9779 6.5375 4.4679 0
M  V30 32 C 0.9368 9.5147 1.9083 0
M  V30 33 C 3.8603 7.3284 2.2902 0
M  V30 34 C 0.1665 8.6218 4.1473 0
M  V30 35 C 1.905 4.632 5.0495 0
M  V30 36 C 2.2917 11.8861 2.9332 0
M  V30 37 C 3.1115 4.025 0.1705 0
M  V30 38 C 1.9487 11.8546 0.8765 0
M  V30 39 C 4.7197 6.8272 5.3479 0
M  V30 40 C 1.7644 3.7908 1.7633 0
M  V30 41 C 2.0003 13.0624 1.4205 0
M  V30 42 C 4.071 5.496 0.0222 0
M  V30 43 C 1.9565 2.2757 3.837 0
M  V30 44 C 4.1875 5.6899 5.2456 0
M  V30 45 C 2.569 9.7489 2.5921 0
M  V30 46 C 4.5294 8.0551 0.5747 0
M  V30 END ATOM
M  V30 BEGIN BOND
M  V30 1 1 1 2
M  V30 2 1 1 3
M  V30 3 1 1 4
M  V30 4 1 1 8
M  V30 5 1 1 31
M  V30 6 1 1 32
M  V30 7 1 1 33
M  V30 8 1 1 34
M  V30 9 1 1 45
M  V30 10 1 2 29
M  V30 11 1 2 45
M  V30 12 1 3 34
M  V30 13 1 4 7
M  V30 14 1 4 10
M  V30 15 1 4 33
M  V30 16 1 5 13
M  V30 17 1 5 19
M  V30 18 1 5 27
M  V30 19 1 5 32
M  V30 20 1 5 38
M  V30 21 1 6 10
M  V30 22 1 6 22
M  V30 23 1 6 25
M  V30 24 1 6 40
M  V30 25 1 7 15
M  V30 26 1 7 16
M  V30 27 1 8 13
M  V30 28 1 8 16
M  V30 29 1 8 32
M  V30 30 1 8 45
M  V30 31 1 9 10
M  V30 32 1 9 12
M  V30 33 1 9 18
M  V30 34 1 9 31
M  V30 35 1 9 44
M  V30 36 1 11 13
M  V30 37 1 11 17
M  V30 38 1 11 20
M  V30 39 1 11 23
M  V30 40 1 12 35
M  V30 41 1 12 44
M  V30 42 1 13 32
M  V30 43 1 13 45
M  V30 44 1 14 16
M  V30 45 1 14 21
M  V30 46 1 15 26
M  V30 47 1 15 37
M  V30 48 1 15 42
M  V30 49 1 17 20
M  V30 50 1 18 31
M  V30 51 1 18 39
M  V30 52 1 18 44
M  V30 53 1 19 36
M  V30 54 1 19 38
M  V30 55 1 19 41
M  V30 56 1 20 23
M  V30 57 1 21 26
M  V30 58 1 22 43
M  V30 59 1 24 36
M  V30 60 1 25 40
M  V30 61 1 26 37
M  V30 62 1 27 32
M  V30 63 1 28 39
M  V30 64 1 30 43
M  V30 65 1 31 44
M  V30 66 1 32 45
M  V30 67 1 37 42
M  V30 68 1 38 41
M  V30 69 1 39 44
M  V30 END BOND
M  V30 END CTAB
M  END
