q17_a37sadm in P1                New: P21
 OpenBabel02242214443D
Generated from the CSD
  0  0  0     0  0            999 V3000
M  V30 BEGIN CTAB
M  V30 COUNTS 92 96 0 0 1
M  V30 BEGIN ATOM
M  V30 1 Br 1.3896 11.8504 14.1542 0
M  V30 2 N -1.1676 9.9989 12.316 0 CHG=1
M  V30 3 C -0.4412 9.5307 11.3394 0
M  V30 4 Zn -0.5948 10.5127 14.1526 0 CHG=-1
M  V30 5 C -4.0864 10.4997 14.098 0
M  V30 6 H -3.9585 10.2219 15.0396 0
M  V30 7 H -5.0572 10.5734 13.919 0
M  V30 8 C -3.4418 9.4818 13.1467 0
M  V30 9 H -4.1402 8.9488 12.6902 0
M  V30 10 H -2.8545 8.8649 13.6511 0
M  V30 11 C -2.6151 10.2833 12.1105 0
M  V30 12 H -2.8795 10.0023 11.1879 0
M  V30 13 C 1.21 8.3402 12.803 0
M  V30 14 H 1.6644 7.4798 12.6862 0
M  V30 15 H 0.4707 8.2357 13.4377 0
M  V30 16 H 1.8459 9.0012 13.1482 0
M  V30 17 C -4.3176 12.0102 11.4973 0
M  V30 18 H -4.5845 12.9495 11.5799 0
M  V30 19 H -5.0403 11.4352 11.8253 0
M  V30 20 H -4.137 11.8034 10.5566 0
M  V30 21 C -1.993 12.8153 11.9413 0
M  V30 22 H -2.1827 13.6545 12.4106 0
M  V30 23 H -2.0322 12.966 10.9738 0
M  V30 24 H -1.0986 12.4988 12.1867 0
M  V30 25 C -4.2183 13.0394 14.2775 0
M  V30 26 H -3.7957 13.8652 13.9618 0
M  V30 27 H -4.2743 13.0543 15.2558 0
M  V30 28 H -5.1198 12.9687 13.8998 0
M  V30 29 H -1.6772 12.6211 14.6295 0
M  V30 30 H -2.2397 11.6398 15.5118 0
M  V30 31 C -3.0356 11.7606 12.3375 0
M  V30 32 C -3.3886 11.8445 13.8357 0
M  V30 33 N -0.6613 9.5839 10.0022 0
M  V30 34 C -1.4933 10.4951 9.2304 0
M  V30 35 H -1.0086 10.7795 8.4276 0
M  V30 36 H -1.7112 11.2797 9.7756 0
M  V30 37 H -2.3205 10.0395 8.9683 0
M  V30 38 Br -0.6773 8.9001 15.9482 0
M  V30 39 N -2.1096 11.8101 14.6335 0
M  V30 40 C 1.3554 8.4612 10.2805 0
M  V30 41 H 1.6662 7.5213 10.2701 0
M  V30 42 H 2.1231 9.0622 10.1086 0
M  V30 43 N 0.6922 8.7887 11.5292 0
M  V30 44 C 0.2314 8.6893 9.2768 0
M  V30 45 H 0.5698 9.1134 8.4487 0
M  V30 46 H -0.2215 7.8399 9.0455 0
M  V30 47 H 3.274 12.4541 4.0107 0
M  V30 48 H 2.6933 11.1621 4.365 0
M  V30 49 C 0.9986 14.1309 8.066 0
M  V30 50 N 1.8001 13.5884 7.1654 0 CHG=1
M  V30 51 C -0.7974 15.3121 8.8912 0
M  V30 52 H -1.5937 14.7242 8.914 0
M  V30 53 H -1.0876 16.2585 8.904 0
M  V30 54 N 0.9621 13.9425 9.4398 0
M  V30 55 C -0.3964 15.388 6.4447 0
M  V30 56 H 0.3665 15.7061 5.9181 0
M  V30 57 H -1.0661 16.1002 6.5126 0
M  V30 58 H -0.7935 14.607 6.0056 0
M  V30 59 N 0.0431 15.0274 7.7428 0
M  V30 60 C 2.9544 12.7793 7.6411 0
M  V30 61 H 3.2482 13.1284 8.5308 0
M  V30 62 C 1.7678 13.1841 10.3422 0
M  V30 63 H 1.2924 13.0754 11.1923 0
M  V30 64 H 2.6136 13.6538 10.4987 0
M  V30 65 H 1.9505 12.3025 9.9551 0
M  V30 66 C 0.1478 15.0077 10.0233 0
M  V30 67 H 0.6973 15.7966 10.2593 0
M  V30 68 H -0.3378 14.6943 10.8271 0
M  V30 69 N 2.8953 12.0038 4.7002 0
M  V30 70 C 4.1902 12.7697 6.6659 0
M  V30 71 C 3.9077 11.5905 5.72 0
M  V30 72 C 3.245 10.5352 6.6131 0
M  V30 73 H 3.9205 9.8933 6.9476 0
M  V30 74 H 2.5588 10.0348 6.1043 0
M  V30 75 C 4.4672 14.0977 5.9981 0
M  V30 76 H 5.2562 14.0158 5.4227 0
M  V30 77 H 4.6316 14.7796 6.6826 0
M  V30 78 H 3.6934 14.3587 5.4563 0
M  V30 79 C 5.4016 12.4311 7.5604 0
M  V30 80 H 6.2295 12.5637 7.0531 0
M  V30 81 H 5.3424 11.497 7.8507 0
M  V30 82 H 5.402 13.0178 8.3455 0
M  V30 83 C 5.1064 11.049 4.9622 0
M  V30 84 H 5.7662 10.7029 5.5989 0
M  V30 85 H 5.5097 11.7679 4.4322 0
M  V30 86 H 4.8171 10.3267 4.3665 0
M  V30 87 C 2.5973 11.2899 7.7857 0
M  V30 88 H 2.9381 10.9396 8.6466 0
M  V30 89 H 1.6146 11.1714 7.7662 0
M  V30 90 Zn 1.3298 13.1888 5.257 0 CHG=-1
M  V30 91 Br 1.4652 14.8175 3.453 0
M  V30 92 Br -0.6131 11.7911 5.1626 0
M  V30 END ATOM
M  V30 BEGIN BOND
M  V30 1 1 1 4
M  V30 2 2 2 3
M  V30 3 1 2 4
M  V30 4 1 2 11
M  V30 5 1 3 33
M  V30 6 1 3 43
M  V30 7 1 4 38
M  V30 8 1 4 39
M  V30 9 1 5 6
M  V30 10 1 5 7
M  V30 11 1 5 8
M  V30 12 1 5 32
M  V30 13 1 8 9
M  V30 14 1 8 10
M  V30 15 1 8 11
M  V30 16 1 11 12
M  V30 17 1 11 31
M  V30 18 1 13 14
M  V30 19 1 13 15
M  V30 20 1 13 16
M  V30 21 1 13 43
M  V30 22 1 17 18
M  V30 23 1 17 19
M  V30 24 1 17 20
M  V30 25 1 17 31
M  V30 26 1 21 22
M  V30 27 1 21 23
M  V30 28 1 21 24
M  V30 29 1 21 31
M  V30 30 1 25 26
M  V30 31 1 25 27
M  V30 32 1 25 28
M  V30 33 1 25 32
M  V30 34 1 29 39
M  V30 35 1 30 39
M  V30 36 1 31 32
M  V30 37 1 32 39
M  V30 38 1 33 34
M  V30 39 1 33 44
M  V30 40 1 34 35
M  V30 41 1 34 36
M  V30 42 1 34 37
M  V30 43 1 40 41
M  V30 44 1 40 42
M  V30 45 1 40 43
M  V30 46 1 40 44
M  V30 47 1 44 45
M  V30 48 1 44 46
M  V30 49 1 47 69
M  V30 50 1 48 69
M  V30 51 2 49 50
M  V30 52 1 49 54
M  V30 53 1 49 59
M  V30 54 1 50 60
M  V30 55 1 50 90
M  V30 56 1 51 52
M  V30 57 1 51 53
M  V30 58 1 51 59
M  V30 59 1 51 66
M  V30 60 1 54 62
M  V30 61 1 54 66
M  V30 62 1 55 56
M  V30 63 1 55 57
M  V30 64 1 55 58
M  V30 65 1 55 59
M  V30 66 1 60 61
M  V30 67 1 60 70
M  V30 68 1 60 87
M  V30 69 1 62 63
M  V30 70 1 62 64
M  V30 71 1 62 65
M  V30 72 1 66 67
M  V30 73 1 66 68
M  V30 74 1 69 71
M  V30 75 1 69 90
M  V30 76 1 70 71
M  V30 77 1 70 75
M  V30 78 1 70 79
M  V30 79 1 71 72
M  V30 80 1 71 83
M  V30 81 1 72 73
M  V30 82 1 72 74
M  V30 83 1 72 87
M  V30 84 1 75 76
M  V30 85 1 75 77
M  V30 86 1 75 78
M  V30 87 1 79 80
M  V30 88 1 79 81
M  V30 89 1 79 82
M  V30 90 1 83 84
M  V30 91 1 83 85
M  V30 92 1 83 86
M  V30 93 1 87 88
M  V30 94 1 87 89
M  V30 95 1 90 91
M  V30 96 1 90 92
M  V30 END BOND
M  V30 END CTAB
M  END
