ZnC20H34N6O4 in P2(1)/c
 OpenBabel02242214443D
Generated from the CSD
  0  0  0     0  0            999 V3000
M  V30 BEGIN CTAB
M  V30 COUNTS 65 67 0 0 0
M  V30 BEGIN ATOM
M  V30 1 Zn 2.2558 11.169 1.0269 0 CHG=-3
M  V30 2 C 1.0198 9.9711 -1.4101 0
M  V30 3 C 2.7914 9.4831 -3.0946 0
M  V30 4 H 2.7278 10.2599 -3.6887 0
M  V30 5 H 3.0504 8.6942 -3.6151 0
M  V30 6 H 3.4653 9.6544 -2.404 0
M  V30 7 C 0.6769 8.1206 -2.6659 0
M  V30 8 C 0.9099 7.1447 -3.7676 0
M  V30 9 H 0.2631 6.4118 -3.697 0
M  V30 10 H 1.8192 6.7856 -3.6991 0
M  V30 11 H 0.8006 7.5947 -4.6312 0
M  V30 12 C -0.3013 8.1659 -1.7429 0
M  V30 13 C -1.4462 7.2578 -1.4626 0
M  V30 14 H -1.4103 6.4897 -2.0701 0
M  V30 15 H -2.2876 7.7418 -1.5973 0
M  V30 16 H -1.3947 6.9438 -0.5357 0
M  V30 17 C -0.9931 9.8352 0.0373 0
M  V30 18 H -0.8792 9.3184 0.8622 0
M  V30 19 H -1.92 9.7575 -0.2714 0
M  V30 20 H -0.7843 10.7769 0.2103 0
M  V30 21 C 2.102 12.139 -1.5984 0
M  V30 22 H 1.5807 12.3156 -2.4213 0
M  V30 23 H 3.0259 11.8933 -1.8554 0
M  V30 24 C 2.1082 13.3666 -0.6983 0
M  V30 25 H 2.537 14.13 -1.1602 0
M  V30 26 H 1.1824 13.6225 -0.4586 0
M  V30 27 C 3.3671 13.9452 1.2843 0 CHG=-1
M  V30 28 C 1.6934 15.785 1.0707 0
M  V30 29 H 1.7109 16.0072 0.1164 0
M  V30 30 H 1.5 16.5929 1.5907 0
M  V30 31 H 0.998 15.1149 1.2375 0
M  V30 32 C 3.8224 15.8254 2.4586 0
M  V30 33 C 3.6807 17.251 2.8699 0
M  V30 34 H 4.3469 17.4603 3.5575 0
M  V30 35 H 2.7815 17.3991 3.2304 0
M  V30 36 H 3.8205 17.8308 2.0923 0
M  V30 37 C 4.6973 14.8867 2.8527 0
M  V30 38 C 5.7924 14.9087 3.8585 0
M  V30 39 H 5.7756 15.7615 4.3412 0
M  V30 40 H 6.655 14.8074 3.4045 0
M  V30 41 H 5.6685 14.1719 4.4927 0
M  V30 42 C 5.2709 12.5488 2.0381 0
M  V30 43 H 5.0068 11.9169 2.739 0
M  V30 44 H 6.2071 12.808 2.1677 0
M  V30 45 H 5.1677 12.1251 1.1605 0
M  V30 46 C 0.0048 11.7412 2.6455 0
M  V30 47 C -1.0026 11.3323 3.7005 0
M  V30 48 H -1.4144 12.1333 4.0869 0
M  V30 49 H -0.5492 10.8253 4.4061 0
M  V30 50 H -1.696 10.7737 3.291 0
M  V30 51 C 4.4813 9.3969 0.8816 0
M  V30 52 C 5.3073 8.2803 1.497 0
M  V30 53 H 4.8095 7.4379 1.4429 0
M  V30 54 H 5.4926 8.4905 2.436 0
M  V30 55 H 6.1525 8.1922 1.0089 0
M  V30 56 N 1.4815 11.0604 -0.8189 0 CHG=1
M  V30 57 N 1.4952 9.2458 -2.4623 0
M  V30 58 N -0.0983 9.3207 -0.9835 0
M  V30 59 N 2.8666 13.007 0.5059 0 CHG=1
M  V30 60 N 2.9945 15.2476 1.4703 0
M  V30 61 N 4.428 13.729 2.1079 0
M  V30 62 O 1.013 10.9516 2.5337 0 CHG=1
M  V30 63 O -0.2064 12.7379 1.9513 0
M  V30 64 O 3.5305 9.8194 1.64 0 CHG=1
M  V30 65 O 4.7413 9.8187 -0.2402 0
M  V30 END ATOM
M  V30 BEGIN BOND
M  V30 1 1 1 56
M  V30 2 2 1 59
M  V30 3 1 1 62
M  V30 4 1 1 64
M  V30 5 2 2 56
M  V30 6 1 2 57
M  V30 7 1 2 58
M  V30 8 1 3 4
M  V30 9 1 3 5
M  V30 10 1 3 6
M  V30 11 1 3 57
M  V30 12 1 7 8
M  V30 13 2 7 12
M  V30 14 1 7 57
M  V30 15 1 8 9
M  V30 16 1 8 10
M  V30 17 1 8 11
M  V30 18 1 12 13
M  V30 19 1 12 58
M  V30 20 1 13 14
M  V30 21 1 13 15
M  V30 22 1 13 16
M  V30 23 1 17 18
M  V30 24 1 17 19
M  V30 25 1 17 20
M  V30 26 1 17 58
M  V30 27 1 21 22
M  V30 28 1 21 23
M  V30 29 1 21 24
M  V30 30 1 21 56
M  V30 31 1 24 25
M  V30 32 1 24 26
M  V30 33 1 24 59
M  V30 34 1 27 59
M  V30 35 1 27 60
M  V30 36 1 27 61
M  V30 37 1 28 29
M  V30 38 1 28 30
M  V30 39 1 28 31
M  V30 40 1 28 60
M  V30 41 1 32 33
M  V30 42 2 32 37
M  V30 43 1 32 60
M  V30 44 1 33 34
M  V30 45 1 33 35
M  V30 46 1 33 36
M  V30 47 1 37 38
M  V30 48 1 37 61
M  V30 49 1 38 39
M  V30 50 1 38 40
M  V30 51 1 38 41
M  V30 52 1 42 43
M  V30 53 1 42 44
M  V30 54 1 42 45
M  V30 55 1 42 61
M  V30 56 1 46 47
M  V30 57 1 46 62
M  V30 58 2 46 63
M  V30 59 1 47 48
M  V30 60 1 47 49
M  V30 61 1 47 50
M  V30 62 1 51 52
M  V30 63 1 51 64
M  V30 64 2 51 65
M  V30 65 1 52 53
M  V30 66 1 52 54
M  V30 67 1 52 55
M  V30 END BOND
M  V30 END CTAB
M  END
