C18 H24 N4 O4 Zn in P2(1)/c
 OpenBabel02242214443D
Generated from the CSD
  0  0  0     0  0            999 V3000
M  V30 BEGIN CTAB
M  V30 COUNTS 51 53 0 0 0
M  V30 BEGIN ATOM
M  V30 1 Zn 3.6972 7.9772 -0.0447 0 CHG=-3
M  V30 2 O 2.1558 6.8275 0.3244 0 CHG=1
M  V30 3 O 1.606 7.5292 -1.6865 0
M  V30 4 O 3.5529 9.9192 0.0702 0 CHG=1
M  V30 5 O 3.2609 9.4632 2.2256 0
M  V30 6 N 4.9124 7.2858 -1.5497 0 CHG=1
M  V30 7 N 3.9185 7.7676 -3.5825 0
M  V30 8 N 4.4859 5.574 -3.1182 0
M  V30 9 N 5.219 7.1754 1.1245 0 CHG=1
M  V30 10 C 4.4573 6.8681 -2.7437 0
M  V30 11 C 4.0583 9.1903 -3.307 0
M  V30 12 H 3.3639 9.4703 -2.6746 0
M  V30 13 H 3.9632 9.6955 -4.1413 0
M  V30 14 H 4.9417 9.3627 -2.9195 0
M  V30 15 C 2.8263 7.4185 -4.4901 0
M  V30 16 H 2.5523 6.4913 -4.3301 0
M  V30 17 H 3.1287 7.5144 -5.4173 0
M  V30 18 H 2.0658 8.0159 -4.3311 0
M  V30 19 C 4.7632 5.1365 -4.4928 0
M  V30 20 H 4.9592 5.9177 -5.051 0
M  V30 21 H 3.9805 4.6675 -4.8506 0
M  V30 22 H 5.5348 4.5323 -4.494 0
M  V30 23 C 4.4831 4.519 -2.1203 0
M  V30 24 H 5.393 4.1725 -2.0086 0
M  V30 25 H 3.8913 3.7945 -2.4124 0
M  V30 26 H 4.1631 4.8779 -1.2663 0
M  V30 27 C 6.0984 6.7307 -1.0499 0
M  V30 28 C 7.1602 6.2995 -1.8209 0
M  V30 29 H 7.0942 6.3319 -2.768 0
M  V30 30 C 8.3379 5.8129 -1.2251 0
M  V30 31 H 9.0499 5.521 -1.7822 0
M  V30 32 C 8.487 5.7481 0.1252 0
M  V30 33 H 9.293 5.4163 0.5029 0
M  V30 34 C 7.4329 6.1787 0.961 0
M  V30 35 C 6.2511 6.691 0.367 0
M  V30 36 C 7.4825 6.1325 2.3681 0
M  V30 37 H 8.2456 5.7741 2.8061 0
M  V30 38 C 6.4366 6.6015 3.0976 0
M  V30 39 H 6.4626 6.5668 4.0467 0
M  V30 40 C 5.3153 7.1385 2.4402 0 CHG=-1
M  V30 41 H 4.6019 7.4871 2.9617 0
M  V30 42 C 1.3623 6.8809 -0.6712 0
M  V30 43 C 0.0678 6.1149 -0.5231 0
M  V30 44 H -0.5103 6.2986 -1.2928 0
M  V30 45 H -0.3851 6.3947 0.2997 0
M  V30 46 H 0.2594 5.1548 -0.4802 0
M  V30 47 C 3.3574 10.2633 1.2988 0
M  V30 48 C 3.2634 11.7459 1.556 0
M  V30 49 H 2.9543 11.8994 2.4732 0
M  V30 50 H 2.6289 12.1471 0.926 0
M  V30 51 H 4.1458 12.1549 1.4358 0
M  V30 END ATOM
M  V30 BEGIN BOND
M  V30 1 1 1 2
M  V30 2 1 1 4
M  V30 3 1 1 6
M  V30 4 2 1 9
M  V30 5 1 2 42
M  V30 6 2 3 42
M  V30 7 1 4 47
M  V30 8 2 5 47
M  V30 9 2 6 10
M  V30 10 1 6 27
M  V30 11 1 7 10
M  V30 12 1 7 11
M  V30 13 1 7 15
M  V30 14 1 8 10
M  V30 15 1 8 19
M  V30 16 1 8 23
M  V30 17 1 9 35
M  V30 18 1 9 40
M  V30 19 1 11 12
M  V30 20 1 11 13
M  V30 21 1 11 14
M  V30 22 1 15 16
M  V30 23 1 15 17
M  V30 24 1 15 18
M  V30 25 1 19 20
M  V30 26 1 19 21
M  V30 27 1 19 22
M  V30 28 1 23 24
M  V30 29 1 23 25
M  V30 30 1 23 26
M  V30 31 2 27 28
M  V30 32 2 27 35
M  V30 33 1 28 29
M  V30 34 1 28 30
M  V30 35 1 30 31
M  V30 36 2 30 32
M  V30 37 1 32 33
M  V30 38 1 32 34
M  V30 39 2 34 35
M  V30 40 1 34 36
M  V30 41 1 36 37
M  V30 42 2 36 38
M  V30 43 1 38 39
M  V30 44 1 38 40
M  V30 45 1 40 41
M  V30 46 1 42 43
M  V30 47 1 43 44
M  V30 48 1 43 45
M  V30 49 1 43 46
M  V30 50 1 47 48
M  V30 51 1 48 49
M  V30 52 1 48 50
M  V30 53 1 48 51
M  V30 END BOND
M  V30 END CTAB
M  END
