C14 H18 Cl2 N4 Zn in P2(1)/c
 OpenBabel02242214443D
Generated from the CSD
  0  0  0     0  0            999 V3000
M  V30 BEGIN CTAB
M  V30 COUNTS 39 41 0 0 0
M  V30 BEGIN ATOM
M  V30 1 Zn 0.894 2.3716 4.0452 0 CHG=-2
M  V30 2 Cl 2.0337 4.2487 4.3522 0
M  V30 3 Cl -0.7334 2.4627 2.5114 0
M  V30 4 N 1.7256 0.5296 3.8204 0 CHG=1
M  V30 5 N 1.1211 -1.0321 2.1445 0
M  V30 6 N 2.6053 0.6883 1.6939 0
M  V30 7 N 0.3634 1.6092 5.8659 0 CHG=1
M  V30 8 C 1.8156 0.0352 2.5834 0
M  V30 9 C -0.1285 -1.4345 2.7684 0
M  V30 10 H 0.0435 -2.1565 3.4083 0
M  V30 11 H -0.7507 -1.7495 2.0799 0
M  V30 12 H -0.5208 -0.6687 3.2375 0
M  V30 13 C 1.6117 -1.9302 1.102 0
M  V30 14 H 1.058 -1.8322 0.2993 0
M  V30 15 H 1.5652 -2.856 1.4199 0
M  V30 16 H 2.5409 -1.7048 0.8873 0
M  V30 17 C 3.6538 1.5868 2.1657 0
M  V30 18 H 3.2922 2.4934 2.2529 0
M  V30 19 H 4.3941 1.5906 1.5235 0
M  V30 20 H 3.9792 1.2796 3.0376 0
M  V30 21 C 2.1858 0.91 0.3101 0
M  V30 22 H 1.3151 0.486 0.1608 0
M  V30 23 H 2.8477 0.5201 -0.2984 0
M  V30 24 H 2.1137 1.8726 0.1409 0
M  V30 25 C 1.5149 -0.2797 4.9488 0
M  V30 26 C 1.9932 -1.5645 5.1166 0
M  V30 27 H 2.4445 -1.9957 4.4004 0
M  V30 28 C 1.8179 -2.2425 6.3409 0
M  V30 29 H 2.1519 -3.1272 6.4315 0
M  V30 30 C 1.1799 -1.6599 7.4011 0
M  V30 31 H 1.0809 -2.1339 8.2184 0
M  V30 32 C 0.6689 -0.3485 7.2734 0
M  V30 33 C -0.001 0.3384 8.3127 0
M  V30 34 H -0.1367 -0.0883 9.1506 0
M  V30 35 C -0.4532 1.6111 8.1177 0
M  V30 36 H -0.8965 2.079 8.8157 0
M  V30 37 C -0.2517 2.2161 6.8689 0
M  V30 38 H -0.571 3.101 6.7366 0
M  V30 39 C 0.8358 0.3373 6.0452 0
M  V30 END ATOM
M  V30 BEGIN BOND
M  V30 1 1 1 2
M  V30 2 1 1 3
M  V30 3 1 1 4
M  V30 4 1 1 7
M  V30 5 2 4 8
M  V30 6 1 4 25
M  V30 7 1 5 8
M  V30 8 1 5 9
M  V30 9 1 5 13
M  V30 10 1 6 8
M  V30 11 1 6 17
M  V30 12 1 6 21
M  V30 13 1 7 37
M  V30 14 1 7 39
M  V30 15 1 9 10
M  V30 16 1 9 11
M  V30 17 1 9 12
M  V30 18 1 13 14
M  V30 19 1 13 15
M  V30 20 1 13 16
M  V30 21 1 17 18
M  V30 22 1 17 19
M  V30 23 1 17 20
M  V30 24 1 21 22
M  V30 25 1 21 23
M  V30 26 1 21 24
M  V30 27 2 25 26
M  V30 28 2 25 39
M  V30 29 1 26 27
M  V30 30 1 26 28
M  V30 31 1 28 29
M  V30 32 2 28 30
M  V30 33 1 30 31
M  V30 34 1 30 32
M  V30 35 2 32 33
M  V30 36 1 32 39
M  V30 37 1 33 34
M  V30 38 1 33 35
M  V30 39 1 35 36
M  V30 40 2 35 37
M  V30 41 1 37 38
M  V30 END BOND
M  V30 END CTAB
M  END
