tv217_p1 in P1              New: P-1
 OpenBabel02242214443D
Generated from the CSD
  0  0  0     0  0            999 V3000
M  V30 BEGIN CTAB
M  V30 COUNTS 48 51 0 0 1
M  V30 BEGIN ATOM
M  V30 1 N -3.5137 8.4835 4.7884 0
M  V30 2 Cl -4.9932 6.8694 1.52 0
M  V30 3 C -4.8601 8.0569 5.1202 0
M  V30 4 H -5.0661 7.1309 5.1705 0
M  V30 5 H -5.5356 8.7036 5.2872 0
M  V30 6 N -1.3001 8.1603 4.7579 0
M  V30 7 C -0.1274 7.8873 3.9398 0
M  V30 8 H -0.4066 7.7105 3.0172 0
M  V30 9 H 0.3432 7.1043 4.2945 0
M  V30 10 H 0.4708 8.6635 3.9571 0
M  V30 11 N -4.0051 3.019 0.9121 0
M  V30 12 C -1.5069 9.5781 5.0889 0
M  V30 13 H -1.3662 10.1553 4.2969 0
M  V30 14 H -0.8996 9.869 5.8146 0
M  V30 15 C -2.9452 9.6071 5.5366 0
M  V30 16 H -3.0226 9.467 6.5135 0
M  V30 17 H -3.3823 10.4615 5.2934 0
M  V30 18 N -3.1692 3.9511 2.8893 0 CHG=1
M  V30 19 C -0.4944 2.8699 1.6961 0
M  V30 20 H -0.2904 3.6265 2.2332 0
M  V30 21 H 0.2065 2.3283 1.3527 0
M  V30 22 C -2.9836 3.2209 1.8194 0
M  V30 23 N -2.7692 6.3281 4.2073 0 CHG=1
M  V30 24 O -1.8564 3.9094 6.2867 0
M  V30 25 Zn -4.3793 5.5533 3.2206 0 CHG=-2
M  V30 26 Cl -6.2075 4.8845 4.4 0
M  V30 27 C -2.5202 7.5676 4.5428 0
M  V30 28 C -5.389 3.0716 1.3333 0
M  V30 29 H -5.6107 3.9841 1.6134 0
M  V30 30 H -5.5254 2.4571 2.0844 0
M  V30 31 H -5.9677 2.8091 0.5872 0
M  V30 32 C -3.6397 1.8908 0.0557 0
M  V30 33 H -3.9806 2.0142 -0.8655 0
M  V30 34 H -3.9863 1.0375 0.4189 0
M  V30 35 C -2.1351 1.9277 0.0903 0
M  V30 36 H -1.7502 1.0172 0.0363 0
M  V30 37 H -1.7704 2.4805 -0.6455 0
M  V30 38 C -2.8309 3.5128 5.3215 0
M  V30 39 H -3.6934 3.9734 5.4767 0
M  V30 40 H -2.9785 2.5342 5.3461 0
M  V30 41 C -1.2781 5.151 5.8288 0
M  V30 42 H -0.292 5.1193 5.9114 0
M  V30 43 H -1.6144 5.9058 6.374 0
M  V30 44 C -1.6806 5.339 4.3583 0
M  V30 45 H -0.8908 5.581 3.7947 0
M  V30 46 N -1.8779 2.5414 1.3997 0
M  V30 47 C -2.2142 3.9391 3.9994 0
M  V30 48 H -1.4486 3.3356 3.7766 0
M  V30 END ATOM
M  V30 BEGIN BOND
M  V30 1 1 1 3
M  V30 2 1 1 15
M  V30 3 1 1 27
M  V30 4 1 2 25
M  V30 5 1 3 4
M  V30 6 1 3 5
M  V30 7 1 6 7
M  V30 8 1 6 12
M  V30 9 1 6 27
M  V30 10 1 7 8
M  V30 11 1 7 9
M  V30 12 1 7 10
M  V30 13 1 11 22
M  V30 14 1 11 28
M  V30 15 1 11 32
M  V30 16 1 12 13
M  V30 17 1 12 14
M  V30 18 1 12 15
M  V30 19 1 15 16
M  V30 20 1 15 17
M  V30 21 2 18 22
M  V30 22 1 18 25
M  V30 23 1 18 47
M  V30 24 1 19 20
M  V30 25 1 19 21
M  V30 26 1 19 46
M  V30 27 1 22 46
M  V30 28 1 23 25
M  V30 29 2 23 27
M  V30 30 1 23 44
M  V30 31 1 24 38
M  V30 32 1 24 41
M  V30 33 1 25 26
M  V30 34 1 28 29
M  V30 35 1 28 30
M  V30 36 1 28 31
M  V30 37 1 32 33
M  V30 38 1 32 34
M  V30 39 1 32 35
M  V30 40 1 35 36
M  V30 41 1 35 37
M  V30 42 1 35 46
M  V30 43 1 38 39
M  V30 44 1 38 40
M  V30 45 1 38 47
M  V30 46 1 41 42
M  V30 47 1 41 43
M  V30 48 1 41 44
M  V30 49 1 44 45
M  V30 50 1 44 47
M  V30 51 1 47 48
M  V30 END BOND
M  V30 END CTAB
M  END
